CHEMBL14699
     RDKit          2D

 30 33  0  0  0  0  0  0  0  0999 V2000
   -4.4568   -3.9073    0.0000 C   0  0  0  0  0  0  0  0  0  0  0  0
   -3.1325   -4.6117    0.0000 O   0  0  0  0  0  0  0  0  0  0  0  0
   -1.8603   -3.8170    0.0000 C   0  0  0  0  0  0  0  0  0  0  0  0
   -0.5360   -4.5214    0.0000 C   0  0  0  0  0  0  0  0  0  0  0  0
    0.7362   -3.7267    0.0000 C   0  0  0  0  0  0  0  0  0  0  0  0
    2.0605   -4.4310    0.0000 N   0  0  0  0  0  0  0  0  0  0  0  0
    3.3327   -3.6363    0.0000 C   0  0  0  0  0  0  0  0  0  0  0  0
    3.2806   -2.1372    0.0000 N   0  0  0  0  0  0  0  0  0  0  0  0
    1.9562   -1.4329    0.0000 C   0  0  0  0  0  0  0  0  0  0  0  0
    1.9041    0.0662    0.0000 N   0  0  0  0  0  0  0  0  0  0  0  0
    3.1763    0.8609    0.0000 C   0  0  0  0  0  0  0  0  0  0  0  0
    4.5006    0.1566    0.0000 C   0  0  0  0  0  0  0  0  0  0  0  0
    5.7728    0.9513    0.0000 C   0  0  0  0  0  0  0  0  0  0  0  0
    5.7206    2.4504    0.0000 C   0  0  0  0  0  0  0  0  0  0  0  0
    6.9928    3.2451    0.0000 F   0  0  0  0  0  0  0  0  0  0  0  0
    4.3963    3.1547    0.0000 C   0  0  0  0  0  0  0  0  0  0  0  0
    4.3442    4.6538    0.0000 Cl  0  0  0  0  0  0  0  0  0  0  0  0
    3.1241    2.3600    0.0000 C   0  0  0  0  0  0  0  0  0  0  0  0
    0.6841   -2.2276    0.0000 C   0  0  0  0  0  0  0  0  0  0  0  0
   -0.6403   -1.5232    0.0000 C   0  0  0  0  0  0  0  0  0  0  0  0
   -1.9124   -2.3179    0.0000 C   0  0  0  0  0  0  0  0  0  0  0  0
   -3.2368   -1.6135    0.0000 O   0  0  0  0  0  0  0  0  0  0  0  0
   -3.2889   -0.1144    0.0000 C   0  0  0  0  0  0  0  0  0  0  0  0
   -4.6132    0.5900    0.0000 C   0  0  0  0  0  0  0  0  0  0  0  0
   -4.6654    2.0891    0.0000 N   0  0  0  0  0  0  0  0  0  0  0  0
   -3.3932    2.8838    0.0000 C   0  0  0  0  0  0  0  0  0  0  0  0
   -3.4453    4.3829    0.0000 C   0  0  0  0  0  0  0  0  0  0  0  0
   -4.7697    5.0873    0.0000 O   0  0  0  0  0  0  0  0  0  0  0  0
   -6.0418    4.2926    0.0000 C   0  0  0  0  0  0  0  0  0  0  0  0
   -5.9897    2.7935    0.0000 C   0  0  0  0  0  0  0  0  0  0  0  0
  1  2  1  0
  2  3  1  0
  3  4  2  0
  4  5  1  0
  5  6  2  0
  6  7  1  0
  7  8  2  0
  8  9  1  0
  9 10  1  0
 10 11  1  0
 11 12  1  0
 12 13  2  0
 13 14  1  0
 14 15  1  0
 14 16  2  0
 16 17  1  0
 16 18  1  0
  9 19  2  0
 19 20  1  0
 20 21  2  0
 21 22  1  0
 22 23  1  0
 23 24  1  0
 24 25  1  0
 25 26  1  0
 26 27  1  0
 27 28  1  0
 28 29  1  0
 29 30  1  0
 21  3  1  0
 19  5  1  0
 18 11  2  0
 30 25  1  0
M  END
>  <ChEMBL_ID>  (1) 
CHEMBL14699

>  <SMILES>  (1) 
COc1cc2ncnc(Nc3ccc(F)c(Cl)c3)c2cc1OCCN1CCOCC1

>  <MPO_Hit_Score>  (1) 
0.70289999999999997

>  <Tanimoto_to_Gefitinib>  (1) 
0.9194

>  <MolecularWeight>  (1) 
432.88

>  <LogP>  (1) 
3.8900000000000001

>  <TPSA>  (1) 
68.739999999999995

$$$$
CHEMBL2425090
     RDKit          2D

 29 32  0  0  0  0  0  0  0  0999 V2000
   -4.9798   -3.3087    0.0000 C   0  0  0  0  0  0  0  0  0  0  0  0
   -3.7336   -4.1436    0.0000 O   0  0  0  0  0  0  0  0  0  0  0  0
   -2.3875   -3.4819    0.0000 C   0  0  0  0  0  0  0  0  0  0  0  0
   -1.1413   -4.3168    0.0000 C   0  0  0  0  0  0  0  0  0  0  0  0
    0.2048   -3.6550    0.0000 C   0  0  0  0  0  0  0  0  0  0  0  0
    1.4510   -4.4899    0.0000 N   0  0  0  0  0  0  0  0  0  0  0  0
    2.7971   -3.8282    0.0000 C   0  0  0  0  0  0  0  0  0  0  0  0
    2.8971   -2.3315    0.0000 N   0  0  0  0  0  0  0  0  0  0  0  0
    1.6509   -1.4966    0.0000 C   0  0  0  0  0  0  0  0  0  0  0  0
    1.7509    0.0001    0.0000 N   0  0  0  0  0  0  0  0  0  0  0  0
    3.0970    0.6618    0.0000 C   0  0  0  0  0  0  0  0  0  0  0  0
    4.3432   -0.1731    0.0000 C   0  0  0  0  0  0  0  0  0  0  0  0
    5.6893    0.4887    0.0000 C   0  0  0  0  0  0  0  0  0  0  0  0
    5.7893    1.9854    0.0000 C   0  0  0  0  0  0  0  0  0  0  0  0
    7.1354    2.6471    0.0000 F   0  0  0  0  0  0  0  0  0  0  0  0
    4.5431    2.8203    0.0000 C   0  0  0  0  0  0  0  0  0  0  0  0
    4.6431    4.3169    0.0000 Cl  0  0  0  0  0  0  0  0  0  0  0  0
    3.1970    2.1585    0.0000 C   0  0  0  0  0  0  0  0  0  0  0  0
    0.3048   -2.1583    0.0000 C   0  0  0  0  0  0  0  0  0  0  0  0
   -0.9414   -1.3234    0.0000 C   0  0  0  0  0  0  0  0  0  0  0  0
   -2.2875   -1.9852    0.0000 C   0  0  0  0  0  0  0  0  0  0  0  0
   -3.5337   -1.1503    0.0000 O   0  0  0  0  0  0  0  0  0  0  0  0
   -3.4337    0.3464    0.0000 C   0  0  0  0  0  0  0  0  0  0  0  0
   -4.6799    1.1813    0.0000 C   0  0  0  0  0  0  0  0  0  0  0  0
   -4.5799    2.6779    0.0000 N   0  0  0  0  0  0  0  0  0  0  0  0
   -3.4509    3.6655    0.0000 C   0  0  0  0  0  0  0  0  0  0  0  0
   -4.4386    4.7945    0.0000 C   0  0  0  0  0  0  0  0  0  0  0  0
   -4.3386    6.2912    0.0000 O   0  0  0  0  0  0  0  0  0  0  0  0
   -5.5675    3.8069    0.0000 C   0  0  0  0  0  0  0  0  0  0  0  0
  1  2  1  0
  2  3  1  0
  3  4  2  0
  4  5  1  0
  5  6  2  0
  6  7  1  0
  7  8  2  0
  8  9  1  0
  9 10  1  0
 10 11  1  0
 11 12  1  0
 12 13  2  0
 13 14  1  0
 14 15  1  0
 14 16  2  0
 16 17  1  0
 16 18  1  0
  9 19  2  0
 19 20  1  0
 20 21  2  0
 21 22  1  0
 22 23  1  0
 23 24  1  0
 24 25  1  0
 25 26  1  0
 26 27  1  0
 27 28  1  0
 27 29  1  0
 21  3  1  0
 19  5  1  0
 18 11  2  0
 29 25  1  0
M  END
>  <ChEMBL_ID>  (2) 
CHEMBL2425090

>  <SMILES>  (2) 
COc1cc2ncnc(Nc3ccc(F)c(Cl)c3)c2cc1OCCN1CC(O)C1

>  <MPO_Hit_Score>  (2) 
0.66849999999999998

>  <Tanimoto_to_Gefitinib>  (2) 
0.69999999999999996

>  <MolecularWeight>  (2) 
418.86000000000001

>  <LogP>  (2) 
3.23

>  <TPSA>  (2) 
79.739999999999995

$$$$
CHEMBL1788321
     RDKit          2D

 32 35  0  0  0  0  0  0  0  0999 V2000
   -3.0194   -4.4420    0.0000 C   0  0  0  0  0  0  0  0  0  0  0  0
   -1.6058   -4.9438    0.0000 O   0  0  0  0  0  0  0  0  0  0  0  0
   -0.4644   -3.9705    0.0000 C   0  0  0  0  0  0  0  0  0  0  0  0
    0.9491   -4.4723    0.0000 C   0  0  0  0  0  0  0  0  0  0  0  0
    2.0905   -3.4990    0.0000 C   0  0  0  0  0  0  0  0  0  0  0  0
    3.5041   -4.0009    0.0000 N   0  0  0  0  0  0  0  0  0  0  0  0
    4.6454   -3.0276    0.0000 C   0  0  0  0  0  0  0  0  0  0  0  0
    4.3732   -1.5525    0.0000 N   0  0  0  0  0  0  0  0  0  0  0  0
    2.9597   -1.0507    0.0000 C   0  0  0  0  0  0  0  0  0  0  0  0
    2.6875    0.4244    0.0000 N   0  0  0  0  0  0  0  0  0  0  0  0
    3.8288    1.3977    0.0000 C   0  0  0  0  0  0  0  0  0  0  0  0
    5.2424    0.8959    0.0000 C   0  0  0  0  0  0  0  0  0  0  0  0
    6.3838    1.8692    0.0000 C   0  0  0  0  0  0  0  0  0  0  0  0
    6.1116    3.3443    0.0000 C   0  0  0  0  0  0  0  0  0  0  0  0
    7.2529    4.3176    0.0000 F   0  0  0  0  0  0  0  0  0  0  0  0
    4.6980    3.8461    0.0000 C   0  0  0  0  0  0  0  0  0  0  0  0
    4.4258    5.3212    0.0000 Cl  0  0  0  0  0  0  0  0  0  0  0  0
    3.5566    2.8728    0.0000 C   0  0  0  0  0  0  0  0  0  0  0  0
    1.8183   -2.0240    0.0000 C   0  0  0  0  0  0  0  0  0  0  0  0
    0.4047   -1.5221    0.0000 C   0  0  0  0  0  0  0  0  0  0  0  0
   -0.7366   -2.4954    0.0000 C   0  0  0  0  0  0  0  0  0  0  0  0
   -2.1502   -1.9936    0.0000 O   0  0  0  0  0  0  0  0  0  0  0  0
   -2.4224   -0.5185    0.0000 C   0  0  0  0  0  0  0  0  0  0  0  0
   -3.8360   -0.0167    0.0000 C   0  0  0  0  0  0  0  0  0  0  0  0
   -4.9774   -0.9900    0.0000 O   0  0  0  0  0  0  0  0  0  0  0  0
   -4.1082    1.4584    0.0000 C   0  0  0  0  0  0  0  0  0  0  0  0
   -5.5218    1.9602    0.0000 N   0  0  0  0  0  0  0  0  0  0  0  0
   -5.7940    3.4353    0.0000 C   0  0  0  0  0  0  0  0  0  0  0  0
   -7.2075    3.9371    0.0000 C   0  0  0  0  0  0  0  0  0  0  0  0
   -8.3489    2.9638    0.0000 O   0  0  0  0  0  0  0  0  0  0  0  0
   -8.0767    1.4887    0.0000 C   0  0  0  0  0  0  0  0  0  0  0  0
   -6.6631    0.9869    0.0000 C   0  0  0  0  0  0  0  0  0  0  0  0
  1  2  1  0
  2  3  1  0
  3  4  2  0
  4  5  1  0
  5  6  2  0
  6  7  1  0
  7  8  2  0
  8  9  1  0
  9 10  1  0
 10 11  1  0
 11 12  1  0
 12 13  2  0
 13 14  1  0
 14 15  1  0
 14 16  2  0
 16 17  1  0
 16 18  1  0
  9 19  2  0
 19 20  1  0
 20 21  2  0
 21 22  1  0
 22 23  1  0
 23 24  1  0
 24 25  1  6
 24 26  1  0
 26 27  1  0
 27 28  1  0
 28 29  1  0
 29 30  1  0
 30 31  1  0
 31 32  1  0
 21  3  1  0
 19  5  1  0
 18 11  2  0
 32 27  1  0
M  END
>  <ChEMBL_ID>  (3) 
CHEMBL1788321

>  <SMILES>  (3) 
COc1cc2ncnc(Nc3ccc(F)c(Cl)c3)c2cc1OC[C@H](O)CN1CCOCC1

>  <MPO_Hit_Score>  (3) 
0.66559999999999997

>  <Tanimoto_to_Gefitinib>  (3) 
0.74650000000000005

>  <MolecularWeight>  (3) 
462.91000000000003

>  <LogP>  (3) 
3.25

>  <TPSA>  (3) 
88.969999999999999

$$$$
CHEMBL1744086
     RDKit          2D

 32 35  0  0  0  0  0  0  0  0999 V2000
   -3.0194   -4.4420    0.0000 C   0  0  0  0  0  0  0  0  0  0  0  0
   -1.6058   -4.9438    0.0000 O   0  0  0  0  0  0  0  0  0  0  0  0
   -0.4644   -3.9705    0.0000 C   0  0  0  0  0  0  0  0  0  0  0  0
    0.9491   -4.4723    0.0000 C   0  0  0  0  0  0  0  0  0  0  0  0
    2.0905   -3.4990    0.0000 C   0  0  0  0  0  0  0  0  0  0  0  0
    3.5041   -4.0009    0.0000 N   0  0  0  0  0  0  0  0  0  0  0  0
    4.6454   -3.0276    0.0000 C   0  0  0  0  0  0  0  0  0  0  0  0
    4.3732   -1.5525    0.0000 N   0  0  0  0  0  0  0  0  0  0  0  0
    2.9597   -1.0507    0.0000 C   0  0  0  0  0  0  0  0  0  0  0  0
    2.6875    0.4244    0.0000 N   0  0  0  0  0  0  0  0  0  0  0  0
    3.8288    1.3977    0.0000 C   0  0  0  0  0  0  0  0  0  0  0  0
    5.2424    0.8959    0.0000 C   0  0  0  0  0  0  0  0  0  0  0  0
    6.3838    1.8692    0.0000 C   0  0  0  0  0  0  0  0  0  0  0  0
    6.1116    3.3443    0.0000 C   0  0  0  0  0  0  0  0  0  0  0  0
    7.2529    4.3176    0.0000 F   0  0  0  0  0  0  0  0  0  0  0  0
    4.6980    3.8461    0.0000 C   0  0  0  0  0  0  0  0  0  0  0  0
    4.4258    5.3212    0.0000 Cl  0  0  0  0  0  0  0  0  0  0  0  0
    3.5566    2.8728    0.0000 C   0  0  0  0  0  0  0  0  0  0  0  0
    1.8183   -2.0240    0.0000 C   0  0  0  0  0  0  0  0  0  0  0  0
    0.4047   -1.5221    0.0000 C   0  0  0  0  0  0  0  0  0  0  0  0
   -0.7366   -2.4954    0.0000 C   0  0  0  0  0  0  0  0  0  0  0  0
   -2.1502   -1.9936    0.0000 O   0  0  0  0  0  0  0  0  0  0  0  0
   -2.4224   -0.5185    0.0000 C   0  0  0  0  0  0  0  0  0  0  0  0
   -3.8360   -0.0167    0.0000 C   0  0  0  0  0  0  0  0  0  0  0  0
   -4.9774   -0.9900    0.0000 O   0  0  0  0  0  0  0  0  0  0  0  0
   -4.1082    1.4584    0.0000 C   0  0  0  0  0  0  0  0  0  0  0  0
   -5.5218    1.9602    0.0000 N   0  0  0  0  0  0  0  0  0  0  0  0
   -5.7940    3.4353    0.0000 C   0  0  0  0  0  0  0  0  0  0  0  0
   -7.2075    3.9371    0.0000 C   0  0  0  0  0  0  0  0  0  0  0  0
   -8.3489    2.9638    0.0000 O   0  0  0  0  0  0  0  0  0  0  0  0
   -8.0767    1.4887    0.0000 C   0  0  0  0  0  0  0  0  0  0  0  0
   -6.6631    0.9869    0.0000 C   0  0  0  0  0  0  0  0  0  0  0  0
  1  2  1  0
  2  3  1  0
  3  4  2  0
  4  5  1  0
  5  6  2  0
  6  7  1  0
  7  8  2  0
  8  9  1  0
  9 10  1  0
 10 11  1  0
 11 12  1  0
 12 13  2  0
 13 14  1  0
 14 15  1  0
 14 16  2  0
 16 17  1  0
 16 18  1  0
  9 19  2  0
 19 20  1  0
 20 21  2  0
 21 22  1  0
 22 23  1  0
 23 24  1  0
 24 25  1  1
 24 26  1  0
 26 27  1  0
 27 28  1  0
 28 29  1  0
 29 30  1  0
 30 31  1  0
 31 32  1  0
 21  3  1  0
 19  5  1  0
 18 11  2  0
 32 27  1  0
M  END
>  <ChEMBL_ID>  (4) 
CHEMBL1744086

>  <SMILES>  (4) 
COc1cc2ncnc(Nc3ccc(F)c(Cl)c3)c2cc1OC[C@@H](O)CN1CCOCC1

>  <MPO_Hit_Score>  (4) 
0.66559999999999997

>  <Tanimoto_to_Gefitinib>  (4) 
0.74650000000000005

>  <MolecularWeight>  (4) 
462.91000000000003

>  <LogP>  (4) 
3.25

>  <TPSA>  (4) 
88.969999999999999

$$$$
CHEMBL2334001
     RDKit          2D

 25 27  0  0  0  0  0  0  0  0999 V2000
   -6.2433    0.0456    0.0000 C   0  0  0  0  0  0  0  0  0  0  0  0
   -5.4598   -1.2335    0.0000 O   0  0  0  0  0  0  0  0  0  0  0  0
   -3.9603   -1.1945    0.0000 C   0  0  0  0  0  0  0  0  0  0  0  0
   -3.1768   -2.4736    0.0000 C   0  0  0  0  0  0  0  0  0  0  0  0
   -1.6773   -2.4346    0.0000 C   0  0  0  0  0  0  0  0  0  0  0  0
   -0.8938   -3.7138    0.0000 N   0  0  0  0  0  0  0  0  0  0  0  0
    0.6057   -3.6748    0.0000 C   0  0  0  0  0  0  0  0  0  0  0  0
    1.3217   -2.3567    0.0000 N   0  0  0  0  0  0  0  0  0  0  0  0
    0.5382   -1.0776    0.0000 C   0  0  0  0  0  0  0  0  0  0  0  0
    1.2542    0.2405    0.0000 N   0  0  0  0  0  0  0  0  0  0  0  0
    2.7537    0.2795    0.0000 C   0  0  0  0  0  0  0  0  0  0  0  0
    3.5372   -0.9996    0.0000 C   0  0  0  0  0  0  0  0  0  0  0  0
    5.0367   -0.9606    0.0000 C   0  0  0  0  0  0  0  0  0  0  0  0
    5.7527    0.3575    0.0000 C   0  0  0  0  0  0  0  0  0  0  0  0
    7.2521    0.3965    0.0000 F   0  0  0  0  0  0  0  0  0  0  0  0
    4.9691    1.6366    0.0000 C   0  0  0  0  0  0  0  0  0  0  0  0
    5.6851    2.9547    0.0000 Cl  0  0  0  0  0  0  0  0  0  0  0  0
    3.4696    1.5976    0.0000 C   0  0  0  0  0  0  0  0  0  0  0  0
   -0.9613   -1.1166    0.0000 C   0  0  0  0  0  0  0  0  0  0  0  0
   -1.7448    0.1626    0.0000 C   0  0  0  0  0  0  0  0  0  0  0  0
   -3.2443    0.1236    0.0000 C   0  0  0  0  0  0  0  0  0  0  0  0
   -4.0278    1.4027    0.0000 O   0  0  0  0  0  0  0  0  0  0  0  0
   -3.3118    2.7208    0.0000 C   0  0  0  0  0  0  0  0  0  0  0  0
   -4.0953    3.9999    0.0000 C   0  0  0  0  0  0  0  0  0  0  0  0
   -3.3794    5.3180    0.0000 O   0  0  0  0  0  0  0  0  0  0  0  0
  1  2  1  0
  2  3  1  0
  3  4  2  0
  4  5  1  0
  5  6  2  0
  6  7  1  0
  7  8  2  0
  8  9  1  0
  9 10  1  0
 10 11  1  0
 11 12  1  0
 12 13  2  0
 13 14  1  0
 14 15  1  0
 14 16  2  0
 16 17  1  0
 16 18  1  0
  9 19  2  0
 19 20  1  0
 20 21  2  0
 21 22  1  0
 22 23  1  0
 23 24  1  0
 24 25  1  0
 21  3  1  0
 19  5  1  0
 18 11  2  0
M  END
>  <ChEMBL_ID>  (5) 
CHEMBL2334001

>  <SMILES>  (5) 
COc1cc2ncnc(Nc3ccc(F)c(Cl)c3)c2cc1OCCO

>  <MPO_Hit_Score>  (5) 
0.66110000000000002

>  <Tanimoto_to_Gefitinib>  (5) 
0.69230000000000003

>  <MolecularWeight>  (5) 
363.77999999999997

>  <LogP>  (5) 
3.5499999999999998

>  <TPSA>  (5) 
76.5

$$$$
CHEMBL300791
     RDKit          2D

 31 34  0  0  0  0  0  0  0  0999 V2000
   -3.4171   -4.8782    0.0000 C   0  0  0  0  0  0  0  0  0  0  0  0
   -1.9810   -5.3113    0.0000 O   0  0  0  0  0  0  0  0  0  0  0  0
   -0.8878   -4.2842    0.0000 C   0  0  0  0  0  0  0  0  0  0  0  0
    0.5483   -4.7173    0.0000 C   0  0  0  0  0  0  0  0  0  0  0  0
    1.6414   -3.6902    0.0000 C   0  0  0  0  0  0  0  0  0  0  0  0
    3.0775   -4.1233    0.0000 N   0  0  0  0  0  0  0  0  0  0  0  0
    4.1707   -3.0962    0.0000 C   0  0  0  0  0  0  0  0  0  0  0  0
    3.8278   -1.6359    0.0000 N   0  0  0  0  0  0  0  0  0  0  0  0
    2.3917   -1.2028    0.0000 C   0  0  0  0  0  0  0  0  0  0  0  0
    2.0487    0.2575    0.0000 N   0  0  0  0  0  0  0  0  0  0  0  0
    3.1419    1.2846    0.0000 C   0  0  0  0  0  0  0  0  0  0  0  0
    4.5780    0.8515    0.0000 C   0  0  0  0  0  0  0  0  0  0  0  0
    5.6711    1.8786    0.0000 C   0  0  0  0  0  0  0  0  0  0  0  0
    5.3282    3.3389    0.0000 C   0  0  0  0  0  0  0  0  0  0  0  0
    6.4214    4.3660    0.0000 F   0  0  0  0  0  0  0  0  0  0  0  0
    3.8921    3.7720    0.0000 C   0  0  0  0  0  0  0  0  0  0  0  0
    3.5492    5.2323    0.0000 Cl  0  0  0  0  0  0  0  0  0  0  0  0
    2.7989    2.7449    0.0000 C   0  0  0  0  0  0  0  0  0  0  0  0
    1.2985   -2.2299    0.0000 C   0  0  0  0  0  0  0  0  0  0  0  0
   -0.1376   -1.7968    0.0000 C   0  0  0  0  0  0  0  0  0  0  0  0
   -1.2308   -2.8239    0.0000 C   0  0  0  0  0  0  0  0  0  0  0  0
   -2.6669   -2.3908    0.0000 O   0  0  0  0  0  0  0  0  0  0  0  0
   -3.0098   -0.9305    0.0000 C   0  0  0  0  0  0  0  0  0  0  0  0
   -4.4459   -0.4974    0.0000 C   0  0  0  0  0  0  0  0  0  0  0  0
   -4.7889    0.9629    0.0000 N   0  0  0  0  0  0  0  0  0  0  0  0
   -3.6957    1.9900    0.0000 C   0  0  0  0  0  0  0  0  0  0  0  0
   -4.0386    3.4503    0.0000 C   0  0  0  0  0  0  0  0  0  0  0  0
   -5.4747    3.8834    0.0000 N   0  0  0  0  0  0  0  0  0  0  0  0
   -5.8177    5.3437    0.0000 C   0  0  0  0  0  0  0  0  0  0  0  0
   -6.5679    2.8563    0.0000 C   0  0  0  0  0  0  0  0  0  0  0  0
   -6.2250    1.3960    0.0000 C   0  0  0  0  0  0  0  0  0  0  0  0
  1  2  1  0
  2  3  1  0
  3  4  2  0
  4  5  1  0
  5  6  2  0
  6  7  1  0
  7  8  2  0
  8  9  1  0
  9 10  1  0
 10 11  1  0
 11 12  1  0
 12 13  2  0
 13 14  1  0
 14 15  1  0
 14 16  2  0
 16 17  1  0
 16 18  1  0
  9 19  2  0
 19 20  1  0
 20 21  2  0
 21 22  1  0
 22 23  1  0
 23 24  1  0
 24 25  1  0
 25 26  1  0
 26 27  1  0
 27 28  1  0
 28 29  1  0
 28 30  1  0
 30 31  1  0
 21  3  1  0
 19  5  1  0
 18 11  2  0
 31 25  1  0
M  END
>  <ChEMBL_ID>  (6) 
CHEMBL300791

>  <SMILES>  (6) 
COc1cc2ncnc(Nc3ccc(F)c(Cl)c3)c2cc1OCCN1CCN(C)CC1

>  <MPO_Hit_Score>  (6) 
0.64290000000000003

>  <Tanimoto_to_Gefitinib>  (6) 
0.77270000000000005

>  <MolecularWeight>  (6) 
445.93000000000001

>  <LogP>  (6) 
3.7999999999999998

>  <TPSA>  (6) 
62.75

$$$$
CHEMBL2424664
     RDKit          2D

 33 37  0  0  0  0  0  0  0  0999 V2000
   -0.8200   -6.0473    0.0000 C   0  0  0  0  0  0  0  0  0  0  0  0
    0.6733   -5.9057    0.0000 O   0  0  0  0  0  0  0  0  0  0  0  0
    1.2974   -4.5417    0.0000 C   0  0  0  0  0  0  0  0  0  0  0  0
    2.7907   -4.4001    0.0000 C   0  0  0  0  0  0  0  0  0  0  0  0
    3.4148   -3.0361    0.0000 C   0  0  0  0  0  0  0  0  0  0  0  0
    4.9081   -2.8946    0.0000 N   0  0  0  0  0  0  0  0  0  0  0  0
    5.5321   -1.5305    0.0000 C   0  0  0  0  0  0  0  0  0  0  0  0
    4.6629   -0.3081    0.0000 N   0  0  0  0  0  0  0  0  0  0  0  0
    3.1696   -0.4496    0.0000 C   0  0  0  0  0  0  0  0  0  0  0  0
    2.3003    0.7728    0.0000 N   0  0  0  0  0  0  0  0  0  0  0  0
    2.9244    2.1368    0.0000 C   0  0  0  0  0  0  0  0  0  0  0  0
    4.4177    2.2784    0.0000 C   0  0  0  0  0  0  0  0  0  0  0  0
    5.0417    3.6424    0.0000 C   0  0  0  0  0  0  0  0  0  0  0  0
    4.1725    4.8649    0.0000 C   0  0  0  0  0  0  0  0  0  0  0  0
    4.7965    6.2289    0.0000 F   0  0  0  0  0  0  0  0  0  0  0  0
    2.6792    4.7233    0.0000 C   0  0  0  0  0  0  0  0  0  0  0  0
    1.8099    5.9458    0.0000 Cl  0  0  0  0  0  0  0  0  0  0  0  0
    2.0551    3.3593    0.0000 C   0  0  0  0  0  0  0  0  0  0  0  0
    2.5455   -1.8137    0.0000 C   0  0  0  0  0  0  0  0  0  0  0  0
    1.0522   -1.9552    0.0000 C   0  0  0  0  0  0  0  0  0  0  0  0
    0.4281   -3.3193    0.0000 C   0  0  0  0  0  0  0  0  0  0  0  0
   -1.0652   -3.4608    0.0000 O   0  0  0  0  0  0  0  0  0  0  0  0
   -1.9344   -2.2384    0.0000 C   0  0  0  0  0  0  0  0  0  0  0  0
   -3.4277   -2.3799    0.0000 C   0  0  0  0  0  0  0  0  0  0  0  0
   -4.2970   -1.1575    0.0000 N   0  0  0  0  0  0  0  0  0  0  0  0
   -4.0472    0.3216    0.0000 C   0  0  0  0  0  0  0  0  0  0  0  0
   -5.5263    0.5713    0.0000 C   0  0  0  0  0  0  0  0  0  0  0  0
   -5.7760   -0.9077    0.0000 C   0  0  0  0  0  0  0  0  0  0  0  0
   -5.2765    2.0504    0.0000 C   0  0  0  0  0  0  0  0  0  0  0  0
   -6.7556    2.3002    0.0000 S   0  0  0  0  0  0  0  0  0  0  0  0
   -8.2347    2.5499    0.0000 O   0  0  0  0  0  0  0  0  0  0  0  0
   -6.5058    3.7792    0.0000 O   0  0  0  0  0  0  0  0  0  0  0  0
   -7.0053    0.8211    0.0000 C   0  0  0  0  0  0  0  0  0  0  0  0
  1  2  1  0
  2  3  1  0
  3  4  2  0
  4  5  1  0
  5  6  2  0
  6  7  1  0
  7  8  2  0
  8  9  1  0
  9 10  1  0
 10 11  1  0
 11 12  1  0
 12 13  2  0
 13 14  1  0
 14 15  1  0
 14 16  2  0
 16 17  1  0
 16 18  1  0
  9 19  2  0
 19 20  1  0
 20 21  2  0
 21 22  1  0
 22 23  1  0
 23 24  1  0
 24 25  1  0
 25 26  1  0
 26 27  1  0
 27 28  1  0
 27 29  1  0
 29 30  1  0
 30 31  2  0
 30 32  2  0
 30 33  1  0
 21  3  1  0
 19  5  1  0
 18 11  2  0
 28 25  1  0
 33 27  1  0
M  END
>  <ChEMBL_ID>  (7) 
CHEMBL2424664

>  <SMILES>  (7) 
COc1cc2ncnc(Nc3ccc(F)c(Cl)c3)c2cc1OCCN1CC2(C1)CS(=O)(=O)C2

>  <MPO_Hit_Score>  (7) 
0.64200000000000002

>  <Tanimoto_to_Gefitinib>  (7) 
0.65329999999999999

>  <MolecularWeight>  (7) 
492.95999999999998

>  <LogP>  (7) 
3.2799999999999998

>  <TPSA>  (7) 
93.650000000000006

$$$$
CHEMBL2087360
     RDKit          2D

 29 32  0  0  0  0  0  0  0  0999 V2000
   -8.4778    1.5375    0.0000 F   0  0  0  0  0  0  0  0  0  0  0  0
   -6.9909    1.3398    0.0000 C   0  0  0  0  0  0  0  0  0  0  0  0
   -6.0762    2.5286    0.0000 C   0  0  0  0  0  0  0  0  0  0  0  0
   -4.5893    2.3308    0.0000 C   0  0  0  0  0  0  0  0  0  0  0  0
   -4.0171    0.9442    0.0000 C   0  0  0  0  0  0  0  0  0  0  0  0
   -2.5302    0.7465    0.0000 N   0  0  0  0  0  0  0  0  0  0  0  0
   -1.9580   -0.6401    0.0000 C   0  0  0  0  0  0  0  0  0  0  0  0
   -2.8727   -1.8289    0.0000 N   0  0  0  0  0  0  0  0  0  0  0  0
   -2.3005   -3.2155    0.0000 C   0  0  0  0  0  0  0  0  0  0  0  0
   -0.8136   -3.4133    0.0000 N   0  0  0  0  0  0  0  0  0  0  0  0
    0.1011   -2.2245    0.0000 C   0  0  0  0  0  0  0  0  0  0  0  0
    1.5880   -2.4222    0.0000 C   0  0  0  0  0  0  0  0  0  0  0  0
    2.5027   -1.2334    0.0000 C   0  0  0  0  0  0  0  0  0  0  0  0
    3.6915   -2.1481    0.0000 O   0  0  0  0  0  0  0  0  0  0  0  0
    5.1785   -2.3459    0.0000 C   0  0  0  0  0  0  0  0  0  0  0  0
    6.5650   -1.7737    0.0000 C   0  0  0  0  0  0  0  0  0  0  0  0
    7.4798   -0.5849    0.0000 O   0  0  0  0  0  0  0  0  0  0  0  0
    7.6775    0.9020    0.0000 C   0  0  0  0  0  0  0  0  0  0  0  0
    7.1053    2.2886    0.0000 C   0  0  0  0  0  0  0  0  0  0  0  0
    5.9165    3.2033    0.0000 O   0  0  0  0  0  0  0  0  0  0  0  0
    4.4296    3.4011    0.0000 C   0  0  0  0  0  0  0  0  0  0  0  0
    3.0430    2.8289    0.0000 C   0  0  0  0  0  0  0  0  0  0  0  0
    2.1283    1.6401    0.0000 O   0  0  0  0  0  0  0  0  0  0  0  0
    1.9305    0.1532    0.0000 C   0  0  0  0  0  0  0  0  0  0  0  0
    0.4436    0.3509    0.0000 C   0  0  0  0  0  0  0  0  0  0  0  0
   -0.4711   -0.8379    0.0000 C   0  0  0  0  0  0  0  0  0  0  0  0
   -4.9318   -0.2446    0.0000 C   0  0  0  0  0  0  0  0  0  0  0  0
   -6.4187   -0.0468    0.0000 C   0  0  0  0  0  0  0  0  0  0  0  0
   -7.3334   -1.2356    0.0000 Cl  0  0  0  0  0  0  0  0  0  0  0  0
  1  2  1  0
  2  3  1  0
  3  4  2  0
  4  5  1  0
  5  6  1  0
  6  7  1  0
  7  8  1  0
  8  9  2  0
  9 10  1  0
 10 11  2  0
 11 12  1  0
 12 13  2  0
 13 14  1  0
 14 15  1  0
 15 16  1  0
 16 17  1  0
 17 18  1  0
 18 19  1  0
 19 20  1  0
 20 21  1  0
 21 22  1  0
 22 23  1  0
 23 24  1  0
 24 25  2  0
 25 26  1  0
  5 27  2  0
 27 28  1  0
 28 29  1  0
 28  2  2  0
 26  7  2  0
 26 11  1  0
 24 13  1  0
M  END
>  <ChEMBL_ID>  (8) 
CHEMBL2087360

>  <SMILES>  (8) 
Fc1ccc(Nc2ncnc3cc4c(cc23)OCCOCCOCCO4)cc1Cl

>  <MPO_Hit_Score>  (8) 
0.62819999999999998

>  <Tanimoto_to_Gefitinib>  (8) 
0.54410000000000003

>  <MolecularWeight>  (8) 
419.83999999999997

>  <LogP>  (8) 
3.9700000000000002

>  <TPSA>  (8) 
74.730000000000004

$$$$
CHEMBL56502
     RDKit          2D

 27 29  0  0  0  0  0  0  0  0999 V2000
   -5.7237   -1.3983    0.0000 C   0  0  0  0  0  0  0  0  0  0  0  0
   -4.7228   -2.5155    0.0000 O   0  0  0  0  0  0  0  0  0  0  0  0
   -3.2548   -2.2073    0.0000 C   0  0  0  0  0  0  0  0  0  0  0  0
   -2.2539   -3.3246    0.0000 C   0  0  0  0  0  0  0  0  0  0  0  0
   -0.7859   -3.0164    0.0000 C   0  0  0  0  0  0  0  0  0  0  0  0
    0.2150   -4.1336    0.0000 N   0  0  0  0  0  0  0  0  0  0  0  0
    1.6830   -3.8254    0.0000 C   0  0  0  0  0  0  0  0  0  0  0  0
    2.1501   -2.4000    0.0000 N   0  0  0  0  0  0  0  0  0  0  0  0
    1.1492   -1.2827    0.0000 C   0  0  0  0  0  0  0  0  0  0  0  0
    1.6163    0.1427    0.0000 N   0  0  0  0  0  0  0  0  0  0  0  0
    3.0843    0.4509    0.0000 C   0  0  0  0  0  0  0  0  0  0  0  0
    4.0852   -0.6663    0.0000 C   0  0  0  0  0  0  0  0  0  0  0  0
    5.5532   -0.3581    0.0000 C   0  0  0  0  0  0  0  0  0  0  0  0
    6.0203    1.0673    0.0000 C   0  0  0  0  0  0  0  0  0  0  0  0
    7.4883    1.3755    0.0000 F   0  0  0  0  0  0  0  0  0  0  0  0
    5.0194    2.1845    0.0000 C   0  0  0  0  0  0  0  0  0  0  0  0
    5.4864    3.6099    0.0000 Cl  0  0  0  0  0  0  0  0  0  0  0  0
    3.5514    1.8763    0.0000 C   0  0  0  0  0  0  0  0  0  0  0  0
   -0.3188   -1.5909    0.0000 C   0  0  0  0  0  0  0  0  0  0  0  0
   -1.3197   -0.4737    0.0000 C   0  0  0  0  0  0  0  0  0  0  0  0
   -2.7877   -0.7819    0.0000 C   0  0  0  0  0  0  0  0  0  0  0  0
   -3.7886    0.3353    0.0000 O   0  0  0  0  0  0  0  0  0  0  0  0
   -3.3215    1.7607    0.0000 C   0  0  0  0  0  0  0  0  0  0  0  0
   -4.3224    2.8779    0.0000 C   0  0  0  0  0  0  0  0  0  0  0  0
   -5.7904    2.5697    0.0000 O   0  0  0  0  0  0  0  0  0  0  0  0
   -3.8554    4.3034    0.0000 C   0  0  0  0  0  0  0  0  0  0  0  0
   -4.8563    5.4206    0.0000 N   0  0  0  0  0  0  0  0  0  0  0  0
  1  2  1  0
  2  3  1  0
  3  4  2  0
  4  5  1  0
  5  6  2  0
  6  7  1  0
  7  8  2  0
  8  9  1  0
  9 10  1  0
 10 11  1  0
 11 12  1  0
 12 13  2  0
 13 14  1  0
 14 15  1  0
 14 16  2  0
 16 17  1  0
 16 18  1  0
  9 19  2  0
 19 20  1  0
 20 21  2  0
 21 22  1  0
 22 23  1  0
 23 24  1  0
 24 25  1  0
 24 26  1  0
 26 27  1  0
 21  3  1  0
 19  5  1  0
 18 11  2  0
M  END
>  <ChEMBL_ID>  (9) 
CHEMBL56502

>  <SMILES>  (9) 
COc1cc2ncnc(Nc3ccc(F)c(Cl)c3)c2cc1OCC(O)CN

>  <MPO_Hit_Score>  (9) 
0.62150000000000005

>  <Tanimoto_to_Gefitinib>  (9) 
0.59719999999999995

>  <MolecularWeight>  (9) 
392.81999999999999

>  <LogP>  (9) 
2.8700000000000001

>  <TPSA>  (9) 
102.52

$$$$
CHEMBL1203934
     RDKit          2D

 22 24  0  0  0  0  0  0  0  0999 V2000
   -6.2634    1.0652    0.0000 C   0  0  0  0  0  0  0  0  0  0  0  0
   -5.5757   -0.2679    0.0000 O   0  0  0  0  0  0  0  0  0  0  0  0
   -4.0774   -0.3389    0.0000 C   0  0  0  0  0  0  0  0  0  0  0  0
   -3.3897   -1.6719    0.0000 C   0  0  0  0  0  0  0  0  0  0  0  0
   -1.8914   -1.7429    0.0000 C   0  0  0  0  0  0  0  0  0  0  0  0
   -1.2037   -3.0760    0.0000 N   0  0  0  0  0  0  0  0  0  0  0  0
    0.2946   -3.1470    0.0000 C   0  0  0  0  0  0  0  0  0  0  0  0
    1.1052   -1.8849    0.0000 N   0  0  0  0  0  0  0  0  0  0  0  0
    0.4175   -0.5518    0.0000 C   0  0  0  0  0  0  0  0  0  0  0  0
    1.2282    0.7103    0.0000 N   0  0  0  0  0  0  0  0  0  0  0  0
    2.7265    0.6393    0.0000 C   0  0  0  0  0  0  0  0  0  0  0  0
    3.4142   -0.6938    0.0000 C   0  0  0  0  0  0  0  0  0  0  0  0
    4.9125   -0.7647    0.0000 C   0  0  0  0  0  0  0  0  0  0  0  0
    5.7231    0.4974    0.0000 C   0  0  0  0  0  0  0  0  0  0  0  0
    7.2214    0.4264    0.0000 F   0  0  0  0  0  0  0  0  0  0  0  0
    5.0354    1.8304    0.0000 C   0  0  0  0  0  0  0  0  0  0  0  0
    3.5371    1.9014    0.0000 C   0  0  0  0  0  0  0  0  0  0  0  0
   -1.0808   -0.4808    0.0000 C   0  0  0  0  0  0  0  0  0  0  0  0
   -1.7685    0.8523    0.0000 C   0  0  0  0  0  0  0  0  0  0  0  0
   -3.2668    0.9232    0.0000 C   0  0  0  0  0  0  0  0  0  0  0  0
   -3.9545    2.2563    0.0000 O   0  0  0  0  0  0  0  0  0  0  0  0
   -3.1438    3.5184    0.0000 C   0  0  0  0  0  0  0  0  0  0  0  0
  1  2  1  0
  2  3  1  0
  3  4  2  0
  4  5  1  0
  5  6  2  0
  6  7  1  0
  7  8  2  0
  8  9  1  0
  9 10  1  0
 10 11  1  0
 11 12  1  0
 12 13  2  0
 13 14  1  0
 14 15  1  0
 14 16  2  0
 16 17  1  0
  9 18  2  0
 18 19  1  0
 19 20  2  0
 20 21  1  0
 21 22  1  0
 20  3  1  0
 18  5  1  0
 17 11  2  0
M  END
>  <ChEMBL_ID>  (10) 
CHEMBL1203934

>  <SMILES>  (10) 
COc1cc2ncnc(Nc3ccc(F)cc3)c2cc1OC

>  <MPO_Hit_Score>  (10) 
0.61719999999999997

>  <Tanimoto_to_Gefitinib>  (10) 
0.5

>  <MolecularWeight>  (10) 
299.31

>  <LogP>  (10) 
3.5299999999999998

>  <TPSA>  (10) 
56.270000000000003

$$$$
CHEMBL301018
     RDKit          2D

 23 25  0  0  0  0  0  0  0  0999 V2000
   -6.4474    1.3328    0.0000 C   0  0  0  0  0  0  0  0  0  0  0  0
   -5.8436   -0.0403    0.0000 O   0  0  0  0  0  0  0  0  0  0  0  0
   -4.3526   -0.2040    0.0000 C   0  0  0  0  0  0  0  0  0  0  0  0
   -3.7488   -1.5771    0.0000 C   0  0  0  0  0  0  0  0  0  0  0  0
   -2.2578   -1.7408    0.0000 C   0  0  0  0  0  0  0  0  0  0  0  0
   -1.6540   -3.1139    0.0000 N   0  0  0  0  0  0  0  0  0  0  0  0
   -0.1630   -3.2776    0.0000 C   0  0  0  0  0  0  0  0  0  0  0  0
    0.7243   -2.0682    0.0000 N   0  0  0  0  0  0  0  0  0  0  0  0
    0.1205   -0.6951    0.0000 C   0  0  0  0  0  0  0  0  0  0  0  0
    1.0078    0.5144    0.0000 N   0  0  0  0  0  0  0  0  0  0  0  0
    2.4988    0.3507    0.0000 C   0  0  0  0  0  0  0  0  0  0  0  0
    3.1026   -1.0225    0.0000 C   0  0  0  0  0  0  0  0  0  0  0  0
    4.5936   -1.1861    0.0000 C   0  0  0  0  0  0  0  0  0  0  0  0
    5.4809    0.0233    0.0000 C   0  0  0  0  0  0  0  0  0  0  0  0
    6.9720   -0.1404    0.0000 F   0  0  0  0  0  0  0  0  0  0  0  0
    4.8772    1.3964    0.0000 C   0  0  0  0  0  0  0  0  0  0  0  0
    5.7645    2.6058    0.0000 Cl  0  0  0  0  0  0  0  0  0  0  0  0
    3.3861    1.5601    0.0000 C   0  0  0  0  0  0  0  0  0  0  0  0
   -1.3705   -0.5314    0.0000 C   0  0  0  0  0  0  0  0  0  0  0  0
   -1.9743    0.8418    0.0000 C   0  0  0  0  0  0  0  0  0  0  0  0
   -3.4653    1.0055    0.0000 C   0  0  0  0  0  0  0  0  0  0  0  0
   -4.0691    2.3786    0.0000 O   0  0  0  0  0  0  0  0  0  0  0  0
   -3.1818    3.5880    0.0000 C   0  0  0  0  0  0  0  0  0  0  0  0
  1  2  1  0
  2  3  1  0
  3  4  2  0
  4  5  1  0
  5  6  2  0
  6  7  1  0
  7  8  2  0
  8  9  1  0
  9 10  1  0
 10 11  1  0
 11 12  1  0
 12 13  2  0
 13 14  1  0
 14 15  1  0
 14 16  2  0
 16 17  1  0
 16 18  1  0
  9 19  2  0
 19 20  1  0
 20 21  2  0
 21 22  1  0
 22 23  1  0
 21  3  1  0
 19  5  1  0
 18 11  2  0
M  END
>  <ChEMBL_ID>  (11) 
CHEMBL301018

>  <SMILES>  (11) 
COc1cc2ncnc(Nc3ccc(F)c(Cl)c3)c2cc1OC

>  <MPO_Hit_Score>  (11) 
0.61629999999999996

>  <Tanimoto_to_Gefitinib>  (11) 
0.68330000000000002

>  <MolecularWeight>  (11) 
333.75

>  <LogP>  (11) 
4.1799999999999997

>  <TPSA>  (11) 
56.270000000000003

$$$$
CHEMBL3818547
     RDKit          2D

 30 33  0  0  0  0  0  0  0  0999 V2000
   -3.8249   -5.1019    0.0000 C   0  0  0  0  0  0  0  0  0  0  0  0
   -3.6388   -3.6135    0.0000 O   0  0  0  0  0  0  0  0  0  0  0  0
   -2.2567   -3.0305    0.0000 C   0  0  0  0  0  0  0  0  0  0  0  0
   -1.0608   -3.9359    0.0000 C   0  0  0  0  0  0  0  0  0  0  0  0
    0.3213   -3.3529    0.0000 C   0  0  0  0  0  0  0  0  0  0  0  0
    1.5172   -4.2584    0.0000 N   0  0  0  0  0  0  0  0  0  0  0  0
    2.8993   -3.6754    0.0000 C   0  0  0  0  0  0  0  0  0  0  0  0
    3.0855   -2.1870    0.0000 N   0  0  0  0  0  0  0  0  0  0  0  0
    1.8895   -1.2816    0.0000 C   0  0  0  0  0  0  0  0  0  0  0  0
    2.0757    0.2069    0.0000 N   0  0  0  0  0  0  0  0  0  0  0  0
    3.4578    0.7898    0.0000 C   0  0  0  0  0  0  0  0  0  0  0  0
    4.6537   -0.1156    0.0000 C   0  0  0  0  0  0  0  0  0  0  0  0
    6.0358    0.4674    0.0000 C   0  0  0  0  0  0  0  0  0  0  0  0
    6.2219    1.9558    0.0000 C   0  0  0  0  0  0  0  0  0  0  0  0
    7.6040    2.5388    0.0000 F   0  0  0  0  0  0  0  0  0  0  0  0
    5.0260    2.8612    0.0000 C   0  0  0  0  0  0  0  0  0  0  0  0
    5.2122    4.3496    0.0000 Cl  0  0  0  0  0  0  0  0  0  0  0  0
    3.6440    2.2782    0.0000 C   0  0  0  0  0  0  0  0  0  0  0  0
    0.5075   -1.8645    0.0000 C   0  0  0  0  0  0  0  0  0  0  0  0
   -0.6884   -0.9591    0.0000 C   0  0  0  0  0  0  0  0  0  0  0  0
   -2.0705   -1.5421    0.0000 C   0  0  0  0  0  0  0  0  0  0  0  0
   -3.2664   -0.6367    0.0000 N   0  0  0  0  0  0  0  0  0  0  0  0
   -3.0803    0.8517    0.0000 C   0  0  0  0  0  0  0  0  0  0  0  0
   -1.6982    1.4347    0.0000 O   0  0  0  0  0  0  0  0  0  0  0  0
   -4.2762    1.7572    0.0000 C   0  0  0  0  0  0  0  0  0  0  0  0
   -5.7116    1.3219    0.0000 C   0  0  0  0  0  0  0  0  0  0  0  0
   -6.5692    2.5525    0.0000 O   0  0  0  0  0  0  0  0  0  0  0  0
   -5.6638    3.7484    0.0000 C   0  0  0  0  0  0  0  0  0  0  0  0
   -6.0991    5.1839    0.0000 O   0  0  0  0  0  0  0  0  0  0  0  0
   -4.2466    3.2569    0.0000 N   0  0  0  0  0  0  0  0  0  0  0  0
  1  2  1  0
  2  3  1  0
  3  4  2  0
  4  5  1  0
  5  6  2  0
  6  7  1  0
  7  8  2  0
  8  9  1  0
  9 10  1  0
 10 11  1  0
 11 12  1  0
 12 13  2  0
 13 14  1  0
 14 15  1  0
 14 16  2  0
 16 17  1  0
 16 18  1  0
  9 19  2  0
 19 20  1  0
 20 21  2  0
 21 22  1  0
 22 23  1  0
 23 24  2  0
 25 23  1  6
 25 26  1  0
 26 27  1  0
 27 28  1  0
 28 29  2  0
 28 30  1  0
 21  3  1  0
 19  5  1  0
 18 11  2  0
 30 25  1  0
M  END
>  <ChEMBL_ID>  (12) 
CHEMBL3818547

>  <SMILES>  (12) 
COc1cc2ncnc(Nc3ccc(F)c(Cl)c3)c2cc1NC(=O)[C@@H]1COC(=O)N1

>  <MPO_Hit_Score>  (12) 
0.61599999999999999

>  <Tanimoto_to_Gefitinib>  (12) 
0.49399999999999999

>  <MolecularWeight>  (12) 
431.81

>  <LogP>  (12) 
3.2200000000000002

>  <TPSA>  (12) 
114.47

$$$$
CHEMBL3775664
     RDKit          2D

 33 37  0  0  0  0  0  0  0  0999 V2000
    7.2773   -4.5160    0.0000 F   0  0  0  0  0  0  0  0  0  0  0  0
    6.1284   -3.5516    0.0000 C   0  0  0  0  0  0  0  0  0  0  0  0
    4.7188   -4.0643    0.0000 C   0  0  0  0  0  0  0  0  0  0  0  0
    3.5699   -3.0998    0.0000 C   0  0  0  0  0  0  0  0  0  0  0  0
    3.8308   -1.6227    0.0000 C   0  0  0  0  0  0  0  0  0  0  0  0
    2.6819   -0.6582    0.0000 N   0  0  0  0  0  0  0  0  0  0  0  0
    2.9428    0.8190    0.0000 C   0  0  0  0  0  0  0  0  0  0  0  0
    4.3524    1.3316    0.0000 N   0  0  0  0  0  0  0  0  0  0  0  0
    4.6133    2.8088    0.0000 C   0  0  0  0  0  0  0  0  0  0  0  0
    3.4644    3.7733    0.0000 N   0  0  0  0  0  0  0  0  0  0  0  0
    2.0548    3.2606    0.0000 C   0  0  0  0  0  0  0  0  0  0  0  0
    0.9059    4.2250    0.0000 C   0  0  0  0  0  0  0  0  0  0  0  0
   -0.5037    3.7123    0.0000 C   0  0  0  0  0  0  0  0  0  0  0  0
   -1.6526    4.6768    0.0000 O   0  0  0  0  0  0  0  0  0  0  0  0
   -3.0622    4.1641    0.0000 C   0  0  0  0  0  0  0  0  0  0  0  0
   -3.3231    2.6869    0.0000 C   0  0  0  0  0  0  0  0  0  0  0  0
   -4.7327    2.1743    0.0000 O   0  0  0  0  0  0  0  0  0  0  0  0
   -2.1742    1.7225    0.0000 N   0  0  0  0  0  0  0  0  0  0  0  0
   -2.4351    0.2453    0.0000 C   0  0  0  0  0  0  0  0  0  0  0  0
   -3.8447   -0.2674    0.0000 C   0  0  0  0  0  0  0  0  0  0  0  0
   -4.1055   -1.7445    0.0000 C   0  0  0  0  0  0  0  0  0  0  0  0
   -5.5152   -2.2572    0.0000 N   0  0  0  0  0  0  0  0  0  0  0  0
   -6.6640   -1.2927    0.0000 C   0  0  0  0  0  0  0  0  0  0  0  0
   -8.0737   -1.8054    0.0000 C   0  0  0  0  0  0  0  0  0  0  0  0
   -8.3345   -3.2826    0.0000 O   0  0  0  0  0  0  0  0  0  0  0  0
   -7.1857   -4.2470    0.0000 C   0  0  0  0  0  0  0  0  0  0  0  0
   -5.7760   -3.7343    0.0000 C   0  0  0  0  0  0  0  0  0  0  0  0
   -0.7646    2.2352    0.0000 C   0  0  0  0  0  0  0  0  0  0  0  0
    0.3843    1.2707    0.0000 C   0  0  0  0  0  0  0  0  0  0  0  0
    1.7939    1.7834    0.0000 C   0  0  0  0  0  0  0  0  0  0  0  0
    5.2404   -1.1100    0.0000 C   0  0  0  0  0  0  0  0  0  0  0  0
    6.3893   -2.0744    0.0000 C   0  0  0  0  0  0  0  0  0  0  0  0
    7.7989   -1.5617    0.0000 Cl  0  0  0  0  0  0  0  0  0  0  0  0
  1  2  1  0
  2  3  1  0
  3  4  2  0
  4  5  1  0
  5  6  1  0
  6  7  1  0
  7  8  1  0
  8  9  2  0
  9 10  1  0
 10 11  2  0
 11 12  1  0
 12 13  2  0
 13 14  1  0
 14 15  1  0
 15 16  1  0
 16 17  2  0
 16 18  1  0
 18 19  1  0
 19 20  1  0
 20 21  1  0
 21 22  1  0
 22 23  1  0
 23 24  1  0
 24 25  1  0
 25 26  1  0
 26 27  1  0
 18 28  1  0
 28 29  2  0
 29 30  1  0
  5 31  2  0
 31 32  1  0
 32 33  1  0
 32  2  2  0
 30  7  2  0
 30 11  1  0
 28 13  1  0
 27 22  1  0
M  END
>  <ChEMBL_ID>  (13) 
CHEMBL3775664

>  <SMILES>  (13) 
O=C1COc2cc3ncnc(Nc4ccc(F)c(Cl)c4)c3cc2N1CCCN1CCOCC1

>  <MPO_Hit_Score>  (13) 
0.6089

>  <Tanimoto_to_Gefitinib>  (13) 
0.60260000000000002

>  <MolecularWeight>  (13) 
471.92000000000002

>  <LogP>  (13) 
3.6099999999999999

>  <TPSA>  (13) 
79.819999999999993

$$$$
CHEMBL541586
     RDKit          2D

 22 24  0  0  0  0  0  0  0  0999 V2000
   -6.1245    1.3539    0.0000 C   0  0  0  0  0  0  0  0  0  0  0  0
   -5.5269   -0.0219    0.0000 O   0  0  0  0  0  0  0  0  0  0  0  0
   -4.0366   -0.1923    0.0000 C   0  0  0  0  0  0  0  0  0  0  0  0
   -3.4390   -1.5681    0.0000 C   0  0  0  0  0  0  0  0  0  0  0  0
   -1.9487   -1.7385    0.0000 C   0  0  0  0  0  0  0  0  0  0  0  0
   -1.3511   -3.1143    0.0000 N   0  0  0  0  0  0  0  0  0  0  0  0
    0.1392   -3.2847    0.0000 C   0  0  0  0  0  0  0  0  0  0  0  0
    1.0319   -2.0792    0.0000 N   0  0  0  0  0  0  0  0  0  0  0  0
    0.4343   -0.7034    0.0000 C   0  0  0  0  0  0  0  0  0  0  0  0
    1.3270    0.5021    0.0000 N   0  0  0  0  0  0  0  0  0  0  0  0
    2.8173    0.3317    0.0000 C   0  0  0  0  0  0  0  0  0  0  0  0
    3.4149   -1.0441    0.0000 C   0  0  0  0  0  0  0  0  0  0  0  0
    4.9052   -1.2145    0.0000 C   0  0  0  0  0  0  0  0  0  0  0  0
    5.7979   -0.0090    0.0000 C   0  0  0  0  0  0  0  0  0  0  0  0
    5.2002    1.3668    0.0000 C   0  0  0  0  0  0  0  0  0  0  0  0
    6.0929    2.5722    0.0000 F   0  0  0  0  0  0  0  0  0  0  0  0
    3.7099    1.5371    0.0000 C   0  0  0  0  0  0  0  0  0  0  0  0
   -1.0560   -0.5330    0.0000 C   0  0  0  0  0  0  0  0  0  0  0  0
   -1.6536    0.8428    0.0000 C   0  0  0  0  0  0  0  0  0  0  0  0
   -3.1439    1.0131    0.0000 C   0  0  0  0  0  0  0  0  0  0  0  0
   -3.7415    2.3890    0.0000 O   0  0  0  0  0  0  0  0  0  0  0  0
   -2.8488    3.5944    0.0000 C   0  0  0  0  0  0  0  0  0  0  0  0
  1  2  1  0
  2  3  1  0
  3  4  2  0
  4  5  1  0
  5  6  2  0
  6  7  1  0
  7  8  2  0
  8  9  1  0
  9 10  1  0
 10 11  1  0
 11 12  2  0
 12 13  1  0
 13 14  2  0
 14 15  1  0
 15 16  1  0
 15 17  2  0
  9 18  2  0
 18 19  1  0
 19 20  2  0
 20 21  1  0
 21 22  1  0
 20  3  1  0
 18  5  1  0
 17 11  1  0
M  END
>  <ChEMBL_ID>  (14) 
CHEMBL541586

>  <SMILES>  (14) 
COc1cc2ncnc(Nc3cccc(F)c3)c2cc1OC

>  <MPO_Hit_Score>  (14) 
0.60599999999999998

>  <Tanimoto_to_Gefitinib>  (14) 
0.47760000000000002

>  <MolecularWeight>  (14) 
299.31

>  <LogP>  (14) 
3.5299999999999998

>  <TPSA>  (14) 
56.270000000000003

$$$$
CHEMBL94431
     RDKit          2D

 22 24  0  0  0  0  0  0  0  0999 V2000
   -6.1245    1.3539    0.0000 C   0  0  0  0  0  0  0  0  0  0  0  0
   -5.5269   -0.0219    0.0000 O   0  0  0  0  0  0  0  0  0  0  0  0
   -4.0366   -0.1923    0.0000 C   0  0  0  0  0  0  0  0  0  0  0  0
   -3.4390   -1.5681    0.0000 C   0  0  0  0  0  0  0  0  0  0  0  0
   -1.9487   -1.7385    0.0000 C   0  0  0  0  0  0  0  0  0  0  0  0
   -1.3511   -3.1143    0.0000 N   0  0  0  0  0  0  0  0  0  0  0  0
    0.1392   -3.2847    0.0000 C   0  0  0  0  0  0  0  0  0  0  0  0
    1.0319   -2.0792    0.0000 N   0  0  0  0  0  0  0  0  0  0  0  0
    0.4343   -0.7034    0.0000 C   0  0  0  0  0  0  0  0  0  0  0  0
    1.3270    0.5021    0.0000 N   0  0  0  0  0  0  0  0  0  0  0  0
    2.8173    0.3317    0.0000 C   0  0  0  0  0  0  0  0  0  0  0  0
    3.4149   -1.0441    0.0000 C   0  0  0  0  0  0  0  0  0  0  0  0
    4.9052   -1.2145    0.0000 C   0  0  0  0  0  0  0  0  0  0  0  0
    5.7979   -0.0090    0.0000 C   0  0  0  0  0  0  0  0  0  0  0  0
    5.2002    1.3668    0.0000 C   0  0  0  0  0  0  0  0  0  0  0  0
    6.0929    2.5722    0.0000 F   0  0  0  0  0  0  0  0  0  0  0  0
    3.7099    1.5371    0.0000 C   0  0  0  0  0  0  0  0  0  0  0  0
   -1.0560   -0.5330    0.0000 C   0  0  0  0  0  0  0  0  0  0  0  0
   -1.6536    0.8428    0.0000 C   0  0  0  0  0  0  0  0  0  0  0  0
   -3.1439    1.0131    0.0000 C   0  0  0  0  0  0  0  0  0  0  0  0
   -3.7415    2.3890    0.0000 O   0  0  0  0  0  0  0  0  0  0  0  0
   -2.8488    3.5944    0.0000 C   0  0  0  0  0  0  0  0  0  0  0  0
  1  2  1  0
  2  3  1  0
  3  4  2  0
  4  5  1  0
  5  6  2  0
  6  7  1  0
  7  8  2  0
  8  9  1  0
  9 10  1  0
 10 11  1  0
 11 12  2  0
 12 13  1  0
 13 14  2  0
 14 15  1  0
 15 16  1  0
 15 17  2  0
  9 18  2  0
 18 19  1  0
 19 20  2  0
 20 21  1  0
 21 22  1  0
 20  3  1  0
 18  5  1  0
 17 11  1  0
M  END
>  <ChEMBL_ID>  (15) 
CHEMBL94431

>  <SMILES>  (15) 
COc1cc2ncnc(Nc3cccc(F)c3)c2cc1OC

>  <MPO_Hit_Score>  (15) 
0.60599999999999998

>  <Tanimoto_to_Gefitinib>  (15) 
0.47760000000000002

>  <MolecularWeight>  (15) 
299.31

>  <LogP>  (15) 
3.5299999999999998

>  <TPSA>  (15) 
56.270000000000003

$$$$
CHEMBL542484
     RDKit          2D

 21 23  0  0  0  0  0  0  0  0999 V2000
   -5.9363    0.9897    0.0000 C   0  0  0  0  0  0  0  0  0  0  0  0
   -5.2272   -0.3321    0.0000 O   0  0  0  0  0  0  0  0  0  0  0  0
   -3.7279   -0.3789    0.0000 C   0  0  0  0  0  0  0  0  0  0  0  0
   -3.0188   -1.7007    0.0000 C   0  0  0  0  0  0  0  0  0  0  0  0
   -1.5195   -1.7474    0.0000 C   0  0  0  0  0  0  0  0  0  0  0  0
   -0.8103   -3.0692    0.0000 N   0  0  0  0  0  0  0  0  0  0  0  0
    0.6889   -3.1159    0.0000 C   0  0  0  0  0  0  0  0  0  0  0  0
    1.4791   -1.8409    0.0000 N   0  0  0  0  0  0  0  0  0  0  0  0
    0.7699   -0.5191    0.0000 C   0  0  0  0  0  0  0  0  0  0  0  0
    1.5600    0.7559    0.0000 N   0  0  0  0  0  0  0  0  0  0  0  0
    3.0593    0.7092    0.0000 C   0  0  0  0  0  0  0  0  0  0  0  0
    3.7685   -0.6126    0.0000 C   0  0  0  0  0  0  0  0  0  0  0  0
    5.2677   -0.6594    0.0000 C   0  0  0  0  0  0  0  0  0  0  0  0
    6.0578    0.6157    0.0000 C   0  0  0  0  0  0  0  0  0  0  0  0
    5.3487    1.9374    0.0000 C   0  0  0  0  0  0  0  0  0  0  0  0
    3.8494    1.9842    0.0000 C   0  0  0  0  0  0  0  0  0  0  0  0
   -0.7294   -0.4724    0.0000 C   0  0  0  0  0  0  0  0  0  0  0  0
   -1.4385    0.8494    0.0000 C   0  0  0  0  0  0  0  0  0  0  0  0
   -2.9378    0.8962    0.0000 C   0  0  0  0  0  0  0  0  0  0  0  0
   -3.6469    2.2179    0.0000 O   0  0  0  0  0  0  0  0  0  0  0  0
   -2.8568    3.4930    0.0000 C   0  0  0  0  0  0  0  0  0  0  0  0
  1  2  1  0
  2  3  1  0
  3  4  2  0
  4  5  1  0
  5  6  2  0
  6  7  1  0
  7  8  2  0
  8  9  1  0
  9 10  1  0
 10 11  1  0
 11 12  2  0
 12 13  1  0
 13 14  2  0
 14 15  1  0
 15 16  2  0
  9 17  2  0
 17 18  1  0
 18 19  2  0
 19 20  1  0
 20 21  1  0
 19  3  1  0
 17  5  1  0
 16 11  1  0
M  END
>  <ChEMBL_ID>  (16) 
CHEMBL542484

>  <SMILES>  (16) 
COc1cc2ncnc(Nc3ccccc3)c2cc1OC

>  <MPO_Hit_Score>  (16) 
0.6048

>  <Tanimoto_to_Gefitinib>  (16) 
0.44619999999999999

>  <MolecularWeight>  (16) 
281.31999999999999

>  <LogP>  (16) 
3.3900000000000001

>  <TPSA>  (16) 
56.270000000000003

$$$$
CHEMBL94191
     RDKit          2D

 21 23  0  0  0  0  0  0  0  0999 V2000
   -5.9363    0.9897    0.0000 C   0  0  0  0  0  0  0  0  0  0  0  0
   -5.2272   -0.3321    0.0000 O   0  0  0  0  0  0  0  0  0  0  0  0
   -3.7279   -0.3789    0.0000 C   0  0  0  0  0  0  0  0  0  0  0  0
   -3.0188   -1.7007    0.0000 C   0  0  0  0  0  0  0  0  0  0  0  0
   -1.5195   -1.7474    0.0000 C   0  0  0  0  0  0  0  0  0  0  0  0
   -0.8103   -3.0692    0.0000 N   0  0  0  0  0  0  0  0  0  0  0  0
    0.6889   -3.1159    0.0000 C   0  0  0  0  0  0  0  0  0  0  0  0
    1.4791   -1.8409    0.0000 N   0  0  0  0  0  0  0  0  0  0  0  0
    0.7699   -0.5191    0.0000 C   0  0  0  0  0  0  0  0  0  0  0  0
    1.5600    0.7559    0.0000 N   0  0  0  0  0  0  0  0  0  0  0  0
    3.0593    0.7092    0.0000 C   0  0  0  0  0  0  0  0  0  0  0  0
    3.7685   -0.6126    0.0000 C   0  0  0  0  0  0  0  0  0  0  0  0
    5.2677   -0.6594    0.0000 C   0  0  0  0  0  0  0  0  0  0  0  0
    6.0578    0.6157    0.0000 C   0  0  0  0  0  0  0  0  0  0  0  0
    5.3487    1.9374    0.0000 C   0  0  0  0  0  0  0  0  0  0  0  0
    3.8494    1.9842    0.0000 C   0  0  0  0  0  0  0  0  0  0  0  0
   -0.7294   -0.4724    0.0000 C   0  0  0  0  0  0  0  0  0  0  0  0
   -1.4385    0.8494    0.0000 C   0  0  0  0  0  0  0  0  0  0  0  0
   -2.9378    0.8962    0.0000 C   0  0  0  0  0  0  0  0  0  0  0  0
   -3.6469    2.2179    0.0000 O   0  0  0  0  0  0  0  0  0  0  0  0
   -2.8568    3.4930    0.0000 C   0  0  0  0  0  0  0  0  0  0  0  0
  1  2  1  0
  2  3  1  0
  3  4  2  0
  4  5  1  0
  5  6  2  0
  6  7  1  0
  7  8  2  0
  8  9  1  0
  9 10  1  0
 10 11  1  0
 11 12  2  0
 12 13  1  0
 13 14  2  0
 14 15  1  0
 15 16  2  0
  9 17  2  0
 17 18  1  0
 18 19  2  0
 19 20  1  0
 20 21  1  0
 19  3  1  0
 17  5  1  0
 16 11  1  0
M  END
>  <ChEMBL_ID>  (17) 
CHEMBL94191

>  <SMILES>  (17) 
COc1cc2ncnc(Nc3ccccc3)c2cc1OC

>  <MPO_Hit_Score>  (17) 
0.6048

>  <Tanimoto_to_Gefitinib>  (17) 
0.44619999999999999

>  <MolecularWeight>  (17) 
281.31999999999999

>  <LogP>  (17) 
3.3900000000000001

>  <TPSA>  (17) 
56.270000000000003

$$$$
CHEMBL2425087
     RDKit          2D

 31 35  0  0  0  0  0  0  0  0999 V2000
   -3.1479   -5.0903    0.0000 C   0  0  0  0  0  0  0  0  0  0  0  0
   -1.6913   -5.4485    0.0000 O   0  0  0  0  0  0  0  0  0  0  0  0
   -0.6527   -4.3662    0.0000 C   0  0  0  0  0  0  0  0  0  0  0  0
    0.8038   -4.7244    0.0000 C   0  0  0  0  0  0  0  0  0  0  0  0
    1.8424   -3.6421    0.0000 C   0  0  0  0  0  0  0  0  0  0  0  0
    3.2990   -4.0003    0.0000 N   0  0  0  0  0  0  0  0  0  0  0  0
    4.3375   -2.9180    0.0000 C   0  0  0  0  0  0  0  0  0  0  0  0
    3.9194   -1.4774    0.0000 N   0  0  0  0  0  0  0  0  0  0  0  0
    2.4628   -1.1192    0.0000 C   0  0  0  0  0  0  0  0  0  0  0  0
    2.0448    0.3214    0.0000 N   0  0  0  0  0  0  0  0  0  0  0  0
    3.0833    1.4037    0.0000 C   0  0  0  0  0  0  0  0  0  0  0  0
    4.5399    1.0455    0.0000 C   0  0  0  0  0  0  0  0  0  0  0  0
    5.5784    2.1278    0.0000 C   0  0  0  0  0  0  0  0  0  0  0  0
    5.1604    3.5684    0.0000 C   0  0  0  0  0  0  0  0  0  0  0  0
    6.1989    4.6507    0.0000 F   0  0  0  0  0  0  0  0  0  0  0  0
    3.7038    3.9266    0.0000 C   0  0  0  0  0  0  0  0  0  0  0  0
    3.2857    5.3672    0.0000 Cl  0  0  0  0  0  0  0  0  0  0  0  0
    2.6652    2.8443    0.0000 C   0  0  0  0  0  0  0  0  0  0  0  0
    1.4243   -2.2015    0.0000 C   0  0  0  0  0  0  0  0  0  0  0  0
   -0.0323   -1.8433    0.0000 C   0  0  0  0  0  0  0  0  0  0  0  0
   -1.0708   -2.9256    0.0000 C   0  0  0  0  0  0  0  0  0  0  0  0
   -2.5274   -2.5674    0.0000 O   0  0  0  0  0  0  0  0  0  0  0  0
   -2.9455   -1.1269    0.0000 C   0  0  0  0  0  0  0  0  0  0  0  0
   -4.4021   -0.7686    0.0000 C   0  0  0  0  0  0  0  0  0  0  0  0
   -4.8201    0.6719    0.0000 N   0  0  0  0  0  0  0  0  0  0  0  0
   -4.0971    1.9862    0.0000 C   0  0  0  0  0  0  0  0  0  0  0  0
   -5.4114    2.7092    0.0000 C   0  0  0  0  0  0  0  0  0  0  0  0
   -4.6884    4.0234    0.0000 C   0  0  0  0  0  0  0  0  0  0  0  0
   -6.0026    4.7465    0.0000 O   0  0  0  0  0  0  0  0  0  0  0  0
   -6.7256    3.4322    0.0000 C   0  0  0  0  0  0  0  0  0  0  0  0
   -6.1344    1.3949    0.0000 C   0  0  0  0  0  0  0  0  0  0  0  0
  1  2  1  0
  2  3  1  0
  3  4  2  0
  4  5  1  0
  5  6  2  0
  6  7  1  0
  7  8  2  0
  8  9  1  0
  9 10  1  0
 10 11  1  0
 11 12  1  0
 12 13  2  0
 13 14  1  0
 14 15  1  0
 14 16  2  0
 16 17  1  0
 16 18  1  0
  9 19  2  0
 19 20  1  0
 20 21  2  0
 21 22  1  0
 22 23  1  0
 23 24  1  0
 24 25  1  0
 25 26  1  0
 26 27  1  0
 27 28  1  0
 28 29  1  0
 29 30  1  0
 27 31  1  0
 21  3  1  0
 19  5  1  0
 18 11  2  0
 31 25  1  0
 30 27  1  0
M  END
>  <ChEMBL_ID>  (18) 
CHEMBL2425087

>  <SMILES>  (18) 
COc1cc2ncnc(Nc3ccc(F)c(Cl)c3)c2cc1OCCN1CC2(COC2)C1

>  <MPO_Hit_Score>  (18) 
0.60240000000000005

>  <Tanimoto_to_Gefitinib>  (18) 
0.71830000000000005

>  <MolecularWeight>  (18) 
444.88999999999999

>  <LogP>  (18) 
3.8900000000000001

>  <TPSA>  (18) 
68.739999999999995

$$$$
CHEMBL3806292
     RDKit          2D

 25 28  0  0  0  0  0  0  0  0999 V2000
   -6.6515   -1.1378    0.0000 C   0  0  0  0  0  0  0  0  0  0  0  0
   -5.7232    0.0405    0.0000 O   0  0  0  0  0  0  0  0  0  0  0  0
   -4.2386   -0.1743    0.0000 C   0  0  0  0  0  0  0  0  0  0  0  0
   -3.6824   -1.5673    0.0000 C   0  0  0  0  0  0  0  0  0  0  0  0
   -2.1978   -1.7821    0.0000 C   0  0  0  0  0  0  0  0  0  0  0  0
   -1.6416   -3.1752    0.0000 N   0  0  0  0  0  0  0  0  0  0  0  0
   -0.1570   -3.3899    0.0000 C   0  0  0  0  0  0  0  0  0  0  0  0
    0.7713   -2.2117    0.0000 N   0  0  0  0  0  0  0  0  0  0  0  0
    0.2150   -0.8186    0.0000 C   0  0  0  0  0  0  0  0  0  0  0  0
    1.1433    0.3596    0.0000 N   0  0  0  0  0  0  0  0  0  0  0  0
    2.6278    0.1448    0.0000 C   0  0  0  0  0  0  0  0  0  0  0  0
    3.1841   -1.2482    0.0000 C   0  0  0  0  0  0  0  0  0  0  0  0
    4.6686   -1.4630    0.0000 C   0  0  0  0  0  0  0  0  0  0  0  0
    5.5969   -0.2847    0.0000 C   0  0  0  0  0  0  0  0  0  0  0  0
    7.0814   -0.4995    0.0000 F   0  0  0  0  0  0  0  0  0  0  0  0
    5.0406    1.1083    0.0000 C   0  0  0  0  0  0  0  0  0  0  0  0
    5.9689    2.2866    0.0000 Cl  0  0  0  0  0  0  0  0  0  0  0  0
    3.5561    1.3231    0.0000 C   0  0  0  0  0  0  0  0  0  0  0  0
   -1.2695   -0.6039    0.0000 C   0  0  0  0  0  0  0  0  0  0  0  0
   -1.8258    0.7892    0.0000 C   0  0  0  0  0  0  0  0  0  0  0  0
   -0.8975    1.9674    0.0000 O   0  0  0  0  0  0  0  0  0  0  0  0
   -1.4538    3.3605    0.0000 C   0  0  0  0  0  0  0  0  0  0  0  0
   -2.9383    3.5753    0.0000 C   0  0  0  0  0  0  0  0  0  0  0  0
   -3.8666    2.3970    0.0000 O   0  0  0  0  0  0  0  0  0  0  0  0
   -3.3104    1.0040    0.0000 C   0  0  0  0  0  0  0  0  0  0  0  0
  1  2  1  0
  2  3  1  0
  3  4  2  0
  4  5  1  0
  5  6  2  0
  6  7  1  0
  7  8  2  0
  8  9  1  0
  9 10  1  0
 10 11  1  0
 11 12  1  0
 12 13  2  0
 13 14  1  0
 14 15  1  0
 14 16  2  0
 16 17  1  0
 16 18  1  0
  9 19  2  0
 19 20  1  0
 20 21  1  0
 21 22  1  0
 22 23  1  0
 23 24  1  0
 24 25  1  0
 25  3  1  0
 19  5  1  0
 18 11  2  0
 25 20  2  0
M  END
>  <ChEMBL_ID>  (19) 
CHEMBL3806292

>  <SMILES>  (19) 
COc1cc2ncnc(Nc3ccc(F)c(Cl)c3)c2c2c1OCCO2

>  <MPO_Hit_Score>  (19) 
0.6018

>  <Tanimoto_to_Gefitinib>  (19) 
0.53520000000000001

>  <MolecularWeight>  (19) 
361.75999999999999

>  <LogP>  (19) 
3.9500000000000002

>  <TPSA>  (19) 
65.5

$$$$
CHEMBL2333998
     RDKit          2D

 23 25  0  0  0  0  0  0  0  0999 V2000
   -6.2860    1.7955    0.0000 C   0  0  0  0  0  0  0  0  0  0  0  0
   -5.8219    0.3691    0.0000 O   0  0  0  0  0  0  0  0  0  0  0  0
   -4.3546    0.0578    0.0000 C   0  0  0  0  0  0  0  0  0  0  0  0
   -3.8905   -1.3686    0.0000 C   0  0  0  0  0  0  0  0  0  0  0  0
   -2.4231   -1.6799    0.0000 C   0  0  0  0  0  0  0  0  0  0  0  0
   -1.9591   -3.1063    0.0000 N   0  0  0  0  0  0  0  0  0  0  0  0
   -0.4917   -3.4176    0.0000 C   0  0  0  0  0  0  0  0  0  0  0  0
    0.5115   -2.3025    0.0000 N   0  0  0  0  0  0  0  0  0  0  0  0
    0.0475   -0.8761    0.0000 C   0  0  0  0  0  0  0  0  0  0  0  0
    1.0507    0.2390    0.0000 N   0  0  0  0  0  0  0  0  0  0  0  0
    2.5181   -0.0723    0.0000 C   0  0  0  0  0  0  0  0  0  0  0  0
    2.9821   -1.4987    0.0000 C   0  0  0  0  0  0  0  0  0  0  0  0
    4.4495   -1.8100    0.0000 C   0  0  0  0  0  0  0  0  0  0  0  0
    5.4528   -0.6949    0.0000 C   0  0  0  0  0  0  0  0  0  0  0  0
    4.9887    0.7315    0.0000 C   0  0  0  0  0  0  0  0  0  0  0  0
    3.5213    1.0428    0.0000 C   0  0  0  0  0  0  0  0  0  0  0  0
    5.9920    1.8466    0.0000 C   0  0  0  0  0  0  0  0  0  0  0  0
    6.9952    2.9617    0.0000 N   0  0  0  0  0  0  0  0  0  0  0  0
   -1.4199   -0.5648    0.0000 C   0  0  0  0  0  0  0  0  0  0  0  0
   -1.8839    0.8616    0.0000 C   0  0  0  0  0  0  0  0  0  0  0  0
   -3.3513    1.1729    0.0000 C   0  0  0  0  0  0  0  0  0  0  0  0
   -3.8154    2.5993    0.0000 O   0  0  0  0  0  0  0  0  0  0  0  0
   -2.8121    3.7144    0.0000 C   0  0  0  0  0  0  0  0  0  0  0  0
  1  2  1  0
  2  3  1  0
  3  4  2  0
  4  5  1  0
  5  6  2  0
  6  7  1  0
  7  8  2  0
  8  9  1  0
  9 10  1  0
 10 11  1  0
 11 12  2  0
 12 13  1  0
 13 14  2  0
 14 15  1  0
 15 16  2  0
 15 17  1  0
 17 18  3  0
  9 19  2  0
 19 20  1  0
 20 21  2  0
 21 22  1  0
 22 23  1  0
 21  3  1  0
 19  5  1  0
 16 11  1  0
M  END
>  <ChEMBL_ID>  (20) 
CHEMBL2333998

>  <SMILES>  (20) 
COc1cc2ncnc(Nc3cccc(C#N)c3)c2cc1OC

>  <MPO_Hit_Score>  (20) 
0.59999999999999998

>  <Tanimoto_to_Gefitinib>  (20) 
0.41670000000000001

>  <MolecularWeight>  (20) 
306.32999999999998

>  <LogP>  (20) 
3.2599999999999998

>  <TPSA>  (20) 
80.060000000000002

$$$$
CHEMBL2064389
     RDKit          2D

 32 36  0  0  0  0  0  0  0  0999 V2000
    8.0000   -3.9716    0.0000 F   0  0  0  0  0  0  0  0  0  0  0  0
    6.7436   -3.1522    0.0000 C   0  0  0  0  0  0  0  0  0  0  0  0
    5.4058   -3.8307    0.0000 C   0  0  0  0  0  0  0  0  0  0  0  0
    4.1493   -3.0113    0.0000 C   0  0  0  0  0  0  0  0  0  0  0  0
    4.2307   -1.5135    0.0000 C   0  0  0  0  0  0  0  0  0  0  0  0
    2.9743   -0.6941    0.0000 N   0  0  0  0  0  0  0  0  0  0  0  0
    3.0557    0.8037    0.0000 C   0  0  0  0  0  0  0  0  0  0  0  0
    4.3935    1.4821    0.0000 N   0  0  0  0  0  0  0  0  0  0  0  0
    4.4749    2.9799    0.0000 C   0  0  0  0  0  0  0  0  0  0  0  0
    3.2184    3.7992    0.0000 N   0  0  0  0  0  0  0  0  0  0  0  0
    1.8806    3.1208    0.0000 C   0  0  0  0  0  0  0  0  0  0  0  0
    0.6242    3.9402    0.0000 C   0  0  0  0  0  0  0  0  0  0  0  0
   -0.7136    3.2618    0.0000 C   0  0  0  0  0  0  0  0  0  0  0  0
   -2.1130    3.8020    0.0000 O   0  0  0  0  0  0  0  0  0  0  0  0
   -3.0592    2.6381    0.0000 C   0  0  0  0  0  0  0  0  0  0  0  0
   -4.5570    2.7195    0.0000 O   0  0  0  0  0  0  0  0  0  0  0  0
   -2.2447    1.3785    0.0000 N   0  0  0  0  0  0  0  0  0  0  0  0
   -2.7849   -0.0208    0.0000 C   0  0  0  0  0  0  0  0  0  0  0  0
   -4.2669   -0.2526    0.0000 C   0  0  0  0  0  0  0  0  0  0  0  0
   -4.8071   -1.6519    0.0000 C   0  0  0  0  0  0  0  0  0  0  0  0
   -6.2891   -1.8837    0.0000 N   0  0  0  0  0  0  0  0  0  0  0  0
   -7.2308   -0.7162    0.0000 C   0  0  0  0  0  0  0  0  0  0  0  0
   -8.7128   -0.9480    0.0000 C   0  0  0  0  0  0  0  0  0  0  0  0
   -9.2531   -2.3474    0.0000 O   0  0  0  0  0  0  0  0  0  0  0  0
   -8.3113   -3.5149    0.0000 C   0  0  0  0  0  0  0  0  0  0  0  0
   -6.8293   -3.2831    0.0000 C   0  0  0  0  0  0  0  0  0  0  0  0
   -0.7950    1.7640    0.0000 C   0  0  0  0  0  0  0  0  0  0  0  0
    0.4614    0.9446    0.0000 C   0  0  0  0  0  0  0  0  0  0  0  0
    1.7992    1.6230    0.0000 C   0  0  0  0  0  0  0  0  0  0  0  0
    5.5685   -0.8351    0.0000 C   0  0  0  0  0  0  0  0  0  0  0  0
    6.8250   -1.6544    0.0000 C   0  0  0  0  0  0  0  0  0  0  0  0
    8.1628   -0.9760    0.0000 F   0  0  0  0  0  0  0  0  0  0  0  0
  1  2  1  0
  2  3  1  0
  3  4  2  0
  4  5  1  0
  5  6  1  0
  6  7  1  0
  7  8  1  0
  8  9  2  0
  9 10  1  0
 10 11  2  0
 11 12  1  0
 12 13  2  0
 13 14  1  0
 14 15  1  0
 15 16  2  0
 15 17  1  0
 17 18  1  0
 18 19  1  0
 19 20  1  0
 20 21  1  0
 21 22  1  0
 22 23  1  0
 23 24  1  0
 24 25  1  0
 25 26  1  0
 17 27  1  0
 27 28  2  0
 28 29  1  0
  5 30  2  0
 30 31  1  0
 31 32  1  0
 31  2  2  0
 29  7  2  0
 29 11  1  0
 27 13  1  0
 26 21  1  0
M  END
>  <ChEMBL_ID>  (21) 
CHEMBL2064389

>  <SMILES>  (21) 
O=c1oc2cc3ncnc(Nc4ccc(F)c(F)c4)c3cc2n1CCCN1CCOCC1

>  <MPO_Hit_Score>  (21) 
0.59989999999999999

>  <Tanimoto_to_Gefitinib>  (21) 
0.51900000000000002

>  <MolecularWeight>  (21) 
441.44

>  <LogP>  (21) 
3.2799999999999998

>  <TPSA>  (21) 
85.420000000000002

$$$$
CHEMBL56266
     RDKit          2D

 28 30  0  0  0  0  0  0  0  0999 V2000
   -9.5312   -1.9662    0.0000 C   0  0  0  0  0  0  0  0  0  0  0  0
   -8.0723   -2.3151    0.0000 N   0  0  0  0  0  0  0  0  0  0  0  0
   -7.0408   -1.2261    0.0000 C   0  0  0  0  0  0  0  0  0  0  0  0
   -5.5819   -1.5750    0.0000 C   0  0  0  0  0  0  0  0  0  0  0  0
   -5.1546   -3.0128    0.0000 O   0  0  0  0  0  0  0  0  0  0  0  0
   -4.5503   -0.4860    0.0000 C   0  0  0  0  0  0  0  0  0  0  0  0
   -3.0915   -0.8349    0.0000 O   0  0  0  0  0  0  0  0  0  0  0  0
   -2.0599    0.2541    0.0000 C   0  0  0  0  0  0  0  0  0  0  0  0
   -0.6010   -0.0948    0.0000 C   0  0  0  0  0  0  0  0  0  0  0  0
    0.4305    0.9942    0.0000 C   0  0  0  0  0  0  0  0  0  0  0  0
    1.8894    0.6453    0.0000 C   0  0  0  0  0  0  0  0  0  0  0  0
    2.3167   -0.7925    0.0000 N   0  0  0  0  0  0  0  0  0  0  0  0
    3.7756   -1.1414    0.0000 C   0  0  0  0  0  0  0  0  0  0  0  0
    4.2029   -2.5793    0.0000 C   0  0  0  0  0  0  0  0  0  0  0  0
    5.6617   -2.9281    0.0000 C   0  0  0  0  0  0  0  0  0  0  0  0
    6.6933   -1.8392    0.0000 C   0  0  0  0  0  0  0  0  0  0  0  0
    8.1522   -2.1880    0.0000 F   0  0  0  0  0  0  0  0  0  0  0  0
    6.2660   -0.4013    0.0000 C   0  0  0  0  0  0  0  0  0  0  0  0
    7.2976    0.6877    0.0000 Cl  0  0  0  0  0  0  0  0  0  0  0  0
    4.8071   -0.0524    0.0000 C   0  0  0  0  0  0  0  0  0  0  0  0
    2.9210    1.7343    0.0000 N   0  0  0  0  0  0  0  0  0  0  0  0
    2.4937    3.1721    0.0000 C   0  0  0  0  0  0  0  0  0  0  0  0
    1.0348    3.5210    0.0000 N   0  0  0  0  0  0  0  0  0  0  0  0
    0.0032    2.4320    0.0000 C   0  0  0  0  0  0  0  0  0  0  0  0
   -1.4556    2.7809    0.0000 C   0  0  0  0  0  0  0  0  0  0  0  0
   -2.4872    1.6919    0.0000 C   0  0  0  0  0  0  0  0  0  0  0  0
   -3.9460    2.0408    0.0000 O   0  0  0  0  0  0  0  0  0  0  0  0
   -4.3733    3.4787    0.0000 C   0  0  0  0  0  0  0  0  0  0  0  0
  1  2  1  0
  2  3  1  0
  3  4  1  0
  4  5  1  0
  4  6  1  0
  6  7  1  0
  7  8  1  0
  8  9  2  0
  9 10  1  0
 10 11  2  0
 11 12  1  0
 12 13  1  0
 13 14  1  0
 14 15  2  0
 15 16  1  0
 16 17  1  0
 16 18  2  0
 18 19  1  0
 18 20  1  0
 11 21  1  0
 21 22  2  0
 22 23  1  0
 23 24  2  0
 24 25  1  0
 25 26  2  0
 26 27  1  0
 27 28  1  0
 26  8  1  0
 24 10  1  0
 20 13  2  0
M  END
>  <ChEMBL_ID>  (22) 
CHEMBL56266

>  <SMILES>  (22) 
CNCC(O)COc1cc2c(Nc3ccc(F)c(Cl)c3)ncnc2cc1OC

>  <MPO_Hit_Score>  (22) 
0.59650000000000003

>  <Tanimoto_to_Gefitinib>  (22) 
0.59719999999999995

>  <MolecularWeight>  (22) 
406.85000000000002

>  <LogP>  (22) 
3.1299999999999999

>  <TPSA>  (22) 
88.530000000000001

$$$$
CHEMBL3815161
     RDKit          2D

 31 34  0  0  0  0  0  0  0  0999 V2000
    9.5420   -2.5617    0.0000 F   0  0  0  0  0  0  0  0  0  0  0  0
    8.1111   -2.1117    0.0000 C   0  0  0  0  0  0  0  0  0  0  0  0
    7.0059   -3.1258    0.0000 C   0  0  0  0  0  0  0  0  0  0  0  0
    5.5750   -2.6758    0.0000 C   0  0  0  0  0  0  0  0  0  0  0  0
    5.2493   -1.2116    0.0000 C   0  0  0  0  0  0  0  0  0  0  0  0
    3.8184   -0.7616    0.0000 N   0  0  0  0  0  0  0  0  0  0  0  0
    3.4926    0.7026    0.0000 C   0  0  0  0  0  0  0  0  0  0  0  0
    4.5978    1.7168    0.0000 N   0  0  0  0  0  0  0  0  0  0  0  0
    4.2721    3.1810    0.0000 C   0  0  0  0  0  0  0  0  0  0  0  0
    2.8412    3.6310    0.0000 N   0  0  0  0  0  0  0  0  0  0  0  0
    1.7360    2.6168    0.0000 C   0  0  0  0  0  0  0  0  0  0  0  0
    0.3051    3.0669    0.0000 C   0  0  0  0  0  0  0  0  0  0  0  0
   -0.8001    2.0527    0.0000 C   0  0  0  0  0  0  0  0  0  0  0  0
   -0.4743    0.5885    0.0000 C   0  0  0  0  0  0  0  0  0  0  0  0
   -1.5795   -0.4257    0.0000 N   0  0  0  0  0  0  0  0  0  0  0  0
   -3.0104    0.0243    0.0000 C   0  0  0  0  0  0  0  0  0  0  0  0
   -3.3361    1.4885    0.0000 O   0  0  0  0  0  0  0  0  0  0  0  0
   -4.1156   -0.9899    0.0000 N   0  0  0  0  0  0  0  0  0  0  0  0
   -5.5465   -0.5399    0.0000 C   0  0  0  0  0  0  0  0  0  0  0  0
   -6.6517   -1.5541    0.0000 C   0  0  0  0  0  0  0  0  0  0  0  0
   -8.0826   -1.1040    0.0000 N   0  0  0  0  0  0  0  0  0  0  0  0
   -8.4083    0.3602    0.0000 C   0  0  0  0  0  0  0  0  0  0  0  0
   -9.8392    0.8102    0.0000 C   0  0  0  0  0  0  0  0  0  0  0  0
  -10.9444   -0.2040    0.0000 O   0  0  0  0  0  0  0  0  0  0  0  0
  -10.6187   -1.6682    0.0000 C   0  0  0  0  0  0  0  0  0  0  0  0
   -9.1878   -2.1182    0.0000 C   0  0  0  0  0  0  0  0  0  0  0  0
    0.9566    0.1384    0.0000 C   0  0  0  0  0  0  0  0  0  0  0  0
    2.0617    1.1526    0.0000 C   0  0  0  0  0  0  0  0  0  0  0  0
    6.3545   -0.1974    0.0000 C   0  0  0  0  0  0  0  0  0  0  0  0
    7.7854   -0.6475    0.0000 C   0  0  0  0  0  0  0  0  0  0  0  0
    8.8905    0.3667    0.0000 Cl  0  0  0  0  0  0  0  0  0  0  0  0
  1  2  1  0
  2  3  1  0
  3  4  2  0
  4  5  1  0
  5  6  1  0
  6  7  1  0
  7  8  1  0
  8  9  2  0
  9 10  1  0
 10 11  2  0
 11 12  1  0
 12 13  2  0
 13 14  1  0
 14 15  1  0
 15 16  1  0
 16 17  2  0
 16 18  1  0
 18 19  1  0
 19 20  1  0
 20 21  1  0
 21 22  1  0
 22 23  1  0
 23 24  1  0
 24 25  1  0
 25 26  1  0
 14 27  2  0
 27 28  1  0
  5 29  2  0
 29 30  1  0
 30 31  1  0
 30  2  2  0
 28  7  2  0
 28 11  1  0
 26 21  1  0
M  END
>  <ChEMBL_ID>  (23) 
CHEMBL3815161

>  <SMILES>  (23) 
O=C(NCCN1CCOCC1)Nc1ccc2ncnc(Nc3ccc(F)c(Cl)c3)c2c1

>  <MPO_Hit_Score>  (23) 
0.59570000000000001

>  <Tanimoto_to_Gefitinib>  (23) 
0.57889999999999997

>  <MolecularWeight>  (23) 
444.89999999999998

>  <LogP>  (23) 
3.6200000000000001

>  <TPSA>  (23) 
91.409999999999997

$$$$
CHEMBL25610
     RDKit          2D

 30 33  0  0  0  0  0  0  0  0999 V2000
    2.3849    4.0599    0.0000 C   0  0  0  0  0  0  0  0  0  0  0  0
    0.9480    3.6292    0.0000 O   0  0  0  0  0  0  0  0  0  0  0  0
    0.6025    2.1696    0.0000 C   0  0  0  0  0  0  0  0  0  0  0  0
   -0.8343    1.7389    0.0000 C   0  0  0  0  0  0  0  0  0  0  0  0
   -1.1798    0.2793    0.0000 C   0  0  0  0  0  0  0  0  0  0  0  0
   -2.6167   -0.1514    0.0000 C   0  0  0  0  0  0  0  0  0  0  0  0
   -3.7081    0.8777    0.0000 N   0  0  0  0  0  0  0  0  0  0  0  0
   -5.1449    0.4470    0.0000 C   0  0  0  0  0  0  0  0  0  0  0  0
   -6.2363    1.4761    0.0000 C   0  0  0  0  0  0  0  0  0  0  0  0
   -7.6731    1.0454    0.0000 C   0  0  0  0  0  0  0  0  0  0  0  0
   -8.0186   -0.4142    0.0000 C   0  0  0  0  0  0  0  0  0  0  0  0
   -9.4555   -0.8449    0.0000 Cl  0  0  0  0  0  0  0  0  0  0  0  0
   -6.9273   -1.4433    0.0000 C   0  0  0  0  0  0  0  0  0  0  0  0
   -5.4904   -1.0126    0.0000 C   0  0  0  0  0  0  0  0  0  0  0  0
   -4.3990   -2.0417    0.0000 F   0  0  0  0  0  0  0  0  0  0  0  0
   -2.9622   -1.6110    0.0000 N   0  0  0  0  0  0  0  0  0  0  0  0
   -1.8708   -2.6401    0.0000 C   0  0  0  0  0  0  0  0  0  0  0  0
   -0.4340   -2.2095    0.0000 N   0  0  0  0  0  0  0  0  0  0  0  0
   -0.0885   -0.7498    0.0000 C   0  0  0  0  0  0  0  0  0  0  0  0
    1.3484   -0.3191    0.0000 C   0  0  0  0  0  0  0  0  0  0  0  0
    1.6939    1.1405    0.0000 C   0  0  0  0  0  0  0  0  0  0  0  0
    3.1307    1.5712    0.0000 O   0  0  0  0  0  0  0  0  0  0  0  0
    4.2221    0.5421    0.0000 C   0  0  0  0  0  0  0  0  0  0  0  0
    5.6590    0.9728    0.0000 C   0  0  0  0  0  0  0  0  0  0  0  0
    6.7503   -0.0563    0.0000 N   0  0  0  0  0  0  0  0  0  0  0  0
    6.4048   -1.5160    0.0000 C   0  0  0  0  0  0  0  0  0  0  0  0
    7.4962   -2.5450    0.0000 C   0  0  0  0  0  0  0  0  0  0  0  0
    8.9331   -2.1144    0.0000 O   0  0  0  0  0  0  0  0  0  0  0  0
    9.2785   -0.6547    0.0000 C   0  0  0  0  0  0  0  0  0  0  0  0
    8.1872    0.3743    0.0000 C   0  0  0  0  0  0  0  0  0  0  0  0
  1  2  1  0
  2  3  1  0
  3  4  2  0
  4  5  1  0
  5  6  2  0
  6  7  1  0
  7  8  1  0
  8  9  1  0
  9 10  2  0
 10 11  1  0
 11 12  1  0
 11 13  2  0
 13 14  1  0
 14 15  1  0
  6 16  1  0
 16 17  2  0
 17 18  1  0
 18 19  2  0
 19 20  1  0
 20 21  2  0
 21 22  1  0
 22 23  1  0
 23 24  1  0
 24 25  1  0
 25 26  1  0
 26 27  1  0
 27 28  1  0
 28 29  1  0
 29 30  1  0
 21  3  1  0
 19  5  1  0
 14  8  2  0
 30 25  1  0
M  END
>  <ChEMBL_ID>  (24) 
CHEMBL25610

>  <SMILES>  (24) 
COc1cc2c(Nc3ccc(Cl)cc3F)ncnc2cc1OCCN1CCOCC1

>  <MPO_Hit_Score>  (24) 
0.59319999999999995

>  <Tanimoto_to_Gefitinib>  (24) 
0.69999999999999996

>  <MolecularWeight>  (24) 
432.88

>  <LogP>  (24) 
3.8900000000000001

>  <TPSA>  (24) 
68.739999999999995

$$$$
CHEMBL2441568
     RDKit          2D

 23 26  0  0  0  0  0  0  0  0999 V2000
   -7.0483    0.8650    0.0000 F   0  0  0  0  0  0  0  0  0  0  0  0
   -5.5484    0.8732    0.0000 C   0  0  0  0  0  0  0  0  0  0  0  0
   -4.8055    2.1764    0.0000 C   0  0  0  0  0  0  0  0  0  0  0  0
   -3.3055    2.1846    0.0000 C   0  0  0  0  0  0  0  0  0  0  0  0
   -2.5484    0.8897    0.0000 C   0  0  0  0  0  0  0  0  0  0  0  0
   -1.0484    0.8979    0.0000 N   0  0  0  0  0  0  0  0  0  0  0  0
   -0.2913   -0.3970    0.0000 C   0  0  0  0  0  0  0  0  0  0  0  0
   -1.0342   -1.7001    0.0000 N   0  0  0  0  0  0  0  0  0  0  0  0
   -0.2770   -2.9950    0.0000 C   0  0  0  0  0  0  0  0  0  0  0  0
    1.2229   -2.9868    0.0000 N   0  0  0  0  0  0  0  0  0  0  0  0
    1.9658   -1.6836    0.0000 C   0  0  0  0  0  0  0  0  0  0  0  0
    3.4658   -1.6754    0.0000 C   0  0  0  0  0  0  0  0  0  0  0  0
    4.2086   -0.3723    0.0000 C   0  0  0  0  0  0  0  0  0  0  0  0
    5.7086   -0.3640    0.0000 O   0  0  0  0  0  0  0  0  0  0  0  0
    6.4515    0.9391    0.0000 C   0  0  0  0  0  0  0  0  0  0  0  0
    5.6943    2.2340    0.0000 C   0  0  0  0  0  0  0  0  0  0  0  0
    4.1944    2.2258    0.0000 N   0  0  0  0  0  0  0  0  0  0  0  0
    3.4515    0.9226    0.0000 C   0  0  0  0  0  0  0  0  0  0  0  0
    1.9515    0.9144    0.0000 C   0  0  0  0  0  0  0  0  0  0  0  0
    1.2087   -0.3887    0.0000 C   0  0  0  0  0  0  0  0  0  0  0  0
   -3.2913   -0.4134    0.0000 C   0  0  0  0  0  0  0  0  0  0  0  0
   -4.7912   -0.4217    0.0000 C   0  0  0  0  0  0  0  0  0  0  0  0
   -5.5341   -1.7248    0.0000 Cl  0  0  0  0  0  0  0  0  0  0  0  0
  1  2  1  0
  2  3  1  0
  3  4  2  0
  4  5  1  0
  5  6  1  0
  6  7  1  0
  7  8  1  0
  8  9  2  0
  9 10  1  0
 10 11  2  0
 11 12  1  0
 12 13  2  0
 13 14  1  0
 14 15  1  0
 15 16  1  0
 16 17  1  0
 17 18  1  0
 18 19  2  0
 19 20  1  0
  5 21  2  0
 21 22  1  0
 22 23  1  0
 22  2  2  0
 20  7  2  0
 20 11  1  0
 18 13  1  0
M  END
>  <ChEMBL_ID>  (25) 
CHEMBL2441568

>  <SMILES>  (25) 
Fc1ccc(Nc2ncnc3cc4c(cc23)NCCO4)cc1Cl

>  <MPO_Hit_Score>  (25) 
0.5927

>  <Tanimoto_to_Gefitinib>  (25) 
0.47299999999999998

>  <MolecularWeight>  (25) 
330.75

>  <LogP>  (25) 
3.9700000000000002

>  <TPSA>  (25) 
59.07

$$$$
CHEMBL461795
     RDKit          2D

 30 33  0  0  0  0  0  0  0  0999 V2000
   -6.3436   -2.7478    0.0000 C   0  0  0  0  0  0  0  0  0  0  0  0
   -5.5280   -1.4889    0.0000 O   0  0  0  0  0  0  0  0  0  0  0  0
   -4.0299   -1.5658    0.0000 C   0  0  0  0  0  0  0  0  0  0  0  0
   -3.3475   -2.9016    0.0000 C   0  0  0  0  0  0  0  0  0  0  0  0
   -1.8495   -2.9784    0.0000 C   0  0  0  0  0  0  0  0  0  0  0  0
   -1.1670   -4.3142    0.0000 N   0  0  0  0  0  0  0  0  0  0  0  0
    0.3310   -4.3911    0.0000 C   0  0  0  0  0  0  0  0  0  0  0  0
    1.1466   -3.1322    0.0000 N   0  0  0  0  0  0  0  0  0  0  0  0
    0.4641   -1.7964    0.0000 C   0  0  0  0  0  0  0  0  0  0  0  0
    1.2797   -0.5375    0.0000 N   0  0  0  0  0  0  0  0  0  0  0  0
    2.7778   -0.6144    0.0000 C   0  0  0  0  0  0  0  0  0  0  0  0
    3.4602   -1.9501    0.0000 C   0  0  0  0  0  0  0  0  0  0  0  0
    4.9582   -2.0270    0.0000 C   0  0  0  0  0  0  0  0  0  0  0  0
    5.7738   -0.7681    0.0000 C   0  0  0  0  0  0  0  0  0  0  0  0
    7.2718   -0.8450    0.0000 F   0  0  0  0  0  0  0  0  0  0  0  0
    5.0914    0.5676    0.0000 C   0  0  0  0  0  0  0  0  0  0  0  0
    5.9070    1.8265    0.0000 Cl  0  0  0  0  0  0  0  0  0  0  0  0
    3.5933    0.6445    0.0000 C   0  0  0  0  0  0  0  0  0  0  0  0
   -1.0339   -1.7195    0.0000 C   0  0  0  0  0  0  0  0  0  0  0  0
   -1.7163   -0.3838    0.0000 C   0  0  0  0  0  0  0  0  0  0  0  0
   -3.2144   -0.3069    0.0000 C   0  0  0  0  0  0  0  0  0  0  0  0
   -3.8968    1.0289    0.0000 C   0  0  0  0  0  0  0  0  0  0  0  0
   -3.0812    2.2878    0.0000 N   0  0  0  0  0  0  0  0  0  0  0  0
   -3.6203    3.6876    0.0000 C   0  0  0  0  0  0  0  0  0  0  0  0
   -2.4556    4.6328    0.0000 C   0  0  0  0  0  0  0  0  0  0  0  0
   -1.1967    3.8172    0.0000 C   0  0  0  0  0  0  0  0  0  0  0  0
   -1.5834    2.3679    0.0000 C   0  0  0  0  0  0  0  0  0  0  0  0
    0.2031    4.3563    0.0000 C   0  0  0  0  0  0  0  0  0  0  0  0
    0.4361    5.8381    0.0000 O   0  0  0  0  0  0  0  0  0  0  0  0
    1.3698    3.4136    0.0000 N   0  0  0  0  0  0  0  0  0  0  0  0
  1  2  1  0
  2  3  1  0
  3  4  2  0
  4  5  1  0
  5  6  2  0
  6  7  1  0
  7  8  2  0
  8  9  1  0
  9 10  1  0
 10 11  1  0
 11 12  1  0
 12 13  2  0
 13 14  1  0
 14 15  1  0
 14 16  2  0
 16 17  1  0
 16 18  1  0
  9 19  2  0
 19 20  1  0
 20 21  2  0
 21 22  1  0
 22 23  1  0
 23 24  1  0
 24 25  1  0
 25 26  1  0
 26 27  1  0
 26 28  1  1
 28 29  2  0
 28 30  1  0
 21  3  1  0
 19  5  1  0
 18 11  2  0
 27 23  1  0
M  END
>  <ChEMBL_ID>  (26) 
CHEMBL461795

>  <SMILES>  (26) 
COc1cc2ncnc(Nc3ccc(F)c(Cl)c3)c2cc1CN1CC[C@@H](C(N)=O)C1

>  <MPO_Hit_Score>  (26) 
0.59109999999999996

>  <Tanimoto_to_Gefitinib>  (26) 
0.53659999999999997

>  <MolecularWeight>  (26) 
429.88

>  <LogP>  (26) 
3.48

>  <TPSA>  (26) 
93.370000000000005

$$$$
CHEMBL2064372
     RDKit          2D

 32 36  0  0  0  0  0  0  0  0999 V2000
    8.0000   -3.9716    0.0000 F   0  0  0  0  0  0  0  0  0  0  0  0
    6.7436   -3.1522    0.0000 C   0  0  0  0  0  0  0  0  0  0  0  0
    5.4058   -3.8307    0.0000 C   0  0  0  0  0  0  0  0  0  0  0  0
    4.1493   -3.0113    0.0000 C   0  0  0  0  0  0  0  0  0  0  0  0
    4.2307   -1.5135    0.0000 C   0  0  0  0  0  0  0  0  0  0  0  0
    2.9743   -0.6941    0.0000 N   0  0  0  0  0  0  0  0  0  0  0  0
    3.0557    0.8037    0.0000 C   0  0  0  0  0  0  0  0  0  0  0  0
    4.3935    1.4821    0.0000 N   0  0  0  0  0  0  0  0  0  0  0  0
    4.4749    2.9799    0.0000 C   0  0  0  0  0  0  0  0  0  0  0  0
    3.2184    3.7992    0.0000 N   0  0  0  0  0  0  0  0  0  0  0  0
    1.8806    3.1208    0.0000 C   0  0  0  0  0  0  0  0  0  0  0  0
    0.6242    3.9402    0.0000 C   0  0  0  0  0  0  0  0  0  0  0  0
   -0.7136    3.2618    0.0000 C   0  0  0  0  0  0  0  0  0  0  0  0
   -2.1130    3.8020    0.0000 O   0  0  0  0  0  0  0  0  0  0  0  0
   -3.0592    2.6381    0.0000 C   0  0  0  0  0  0  0  0  0  0  0  0
   -4.5570    2.7195    0.0000 O   0  0  0  0  0  0  0  0  0  0  0  0
   -2.2447    1.3785    0.0000 N   0  0  0  0  0  0  0  0  0  0  0  0
   -2.7849   -0.0208    0.0000 C   0  0  0  0  0  0  0  0  0  0  0  0
   -4.2669   -0.2526    0.0000 C   0  0  0  0  0  0  0  0  0  0  0  0
   -4.8071   -1.6519    0.0000 C   0  0  0  0  0  0  0  0  0  0  0  0
   -6.2891   -1.8837    0.0000 N   0  0  0  0  0  0  0  0  0  0  0  0
   -7.2308   -0.7162    0.0000 C   0  0  0  0  0  0  0  0  0  0  0  0
   -8.7128   -0.9480    0.0000 C   0  0  0  0  0  0  0  0  0  0  0  0
   -9.2531   -2.3474    0.0000 O   0  0  0  0  0  0  0  0  0  0  0  0
   -8.3113   -3.5149    0.0000 C   0  0  0  0  0  0  0  0  0  0  0  0
   -6.8293   -3.2831    0.0000 C   0  0  0  0  0  0  0  0  0  0  0  0
   -0.7950    1.7640    0.0000 C   0  0  0  0  0  0  0  0  0  0  0  0
    0.4614    0.9446    0.0000 C   0  0  0  0  0  0  0  0  0  0  0  0
    1.7992    1.6230    0.0000 C   0  0  0  0  0  0  0  0  0  0  0  0
    5.5685   -0.8351    0.0000 C   0  0  0  0  0  0  0  0  0  0  0  0
    6.8250   -1.6544    0.0000 C   0  0  0  0  0  0  0  0  0  0  0  0
    8.1628   -0.9760    0.0000 Cl  0  0  0  0  0  0  0  0  0  0  0  0
  1  2  1  0
  2  3  1  0
  3  4  2  0
  4  5  1  0
  5  6  1  0
  6  7  1  0
  7  8  1  0
  8  9  2  0
  9 10  1  0
 10 11  2  0
 11 12  1  0
 12 13  2  0
 13 14  1  0
 14 15  1  0
 15 16  2  0
 15 17  1  0
 17 18  1  0
 18 19  1  0
 19 20  1  0
 20 21  1  0
 21 22  1  0
 22 23  1  0
 23 24  1  0
 24 25  1  0
 25 26  1  0
 17 27  1  0
 27 28  2  0
 28 29  1  0
  5 30  2  0
 30 31  1  0
 31 32  1  0
 31  2  2  0
 29  7  2  0
 29 11  1  0
 27 13  1  0
 26 21  1  0
M  END
>  <ChEMBL_ID>  (27) 
CHEMBL2064372

>  <SMILES>  (27) 
O=c1oc2cc3ncnc(Nc4ccc(F)c(Cl)c4)c3cc2n1CCCN1CCOCC1

>  <MPO_Hit_Score>  (27) 
0.5907

>  <Tanimoto_to_Gefitinib>  (27) 
0.61839999999999995

>  <MolecularWeight>  (27) 
457.88999999999999

>  <LogP>  (27) 
3.7999999999999998

>  <TPSA>  (27) 
85.420000000000002

$$$$
CHEMBL3814211
     RDKit          2D

 23 25  0  0  0  0  0  0  0  0999 V2000
   -6.6546   -2.8439    0.0000 N   0  0  0  0  0  0  0  0  0  0  0  0
   -5.8098   -1.6044    0.0000 C   0  0  0  0  0  0  0  0  0  0  0  0
   -6.4608   -0.2531    0.0000 O   0  0  0  0  0  0  0  0  0  0  0  0
   -4.3139   -1.7163    0.0000 N   0  0  0  0  0  0  0  0  0  0  0  0
   -3.4691   -0.4768    0.0000 C   0  0  0  0  0  0  0  0  0  0  0  0
   -4.1202    0.8745    0.0000 C   0  0  0  0  0  0  0  0  0  0  0  0
   -3.2754    2.1140    0.0000 C   0  0  0  0  0  0  0  0  0  0  0  0
   -1.7795    2.0021    0.0000 C   0  0  0  0  0  0  0  0  0  0  0  0
   -0.9348    3.2416    0.0000 N   0  0  0  0  0  0  0  0  0  0  0  0
    0.5611    3.1297    0.0000 C   0  0  0  0  0  0  0  0  0  0  0  0
    1.2121    1.7784    0.0000 N   0  0  0  0  0  0  0  0  0  0  0  0
    0.3673    0.5389    0.0000 C   0  0  0  0  0  0  0  0  0  0  0  0
    1.0183   -0.8125    0.0000 N   0  0  0  0  0  0  0  0  0  0  0  0
    2.5142   -0.9243    0.0000 C   0  0  0  0  0  0  0  0  0  0  0  0
    3.1652   -2.2757    0.0000 C   0  0  0  0  0  0  0  0  0  0  0  0
    4.6610   -2.3876    0.0000 C   0  0  0  0  0  0  0  0  0  0  0  0
    5.5058   -1.1481    0.0000 C   0  0  0  0  0  0  0  0  0  0  0  0
    7.0016   -1.2599    0.0000 F   0  0  0  0  0  0  0  0  0  0  0  0
    4.8548    0.2033    0.0000 C   0  0  0  0  0  0  0  0  0  0  0  0
    5.6996    1.4428    0.0000 Cl  0  0  0  0  0  0  0  0  0  0  0  0
    3.3589    0.3152    0.0000 C   0  0  0  0  0  0  0  0  0  0  0  0
   -1.1285    0.6508    0.0000 C   0  0  0  0  0  0  0  0  0  0  0  0
   -1.9733   -0.5887    0.0000 C   0  0  0  0  0  0  0  0  0  0  0  0
  1  2  1  0
  2  3  2  0
  2  4  1  0
  4  5  1  0
  5  6  1  0
  6  7  2  0
  7  8  1  0
  8  9  2  0
  9 10  1  0
 10 11  2  0
 11 12  1  0
 12 13  1  0
 13 14  1  0
 14 15  1  0
 15 16  2  0
 16 17  1  0
 17 18  1  0
 17 19  2  0
 19 20  1  0
 19 21  1  0
 12 22  2  0
 22 23  1  0
 23  5  2  0
 22  8  1  0
 21 14  2  0
M  END
>  <ChEMBL_ID>  (28) 
CHEMBL3814211

>  <SMILES>  (28) 
NC(=O)Nc1ccc2ncnc(Nc3ccc(F)c(Cl)c3)c2c1

>  <MPO_Hit_Score>  (28) 
0.58840000000000003

>  <Tanimoto_to_Gefitinib>  (28) 
0.42470000000000002

>  <MolecularWeight>  (28) 
331.74000000000001

>  <LogP>  (28) 
3.6600000000000001

>  <TPSA>  (28) 
92.930000000000007

$$$$
CHEMBL1204360
     RDKit          2D

 22 24  0  0  0  0  0  0  0  0999 V2000
   -6.0298    1.1406    0.0000 C   0  0  0  0  0  0  0  0  0  0  0  0
   -5.3873   -0.2148    0.0000 O   0  0  0  0  0  0  0  0  0  0  0  0
   -3.8922   -0.3360    0.0000 C   0  0  0  0  0  0  0  0  0  0  0  0
   -3.2496   -1.6914    0.0000 C   0  0  0  0  0  0  0  0  0  0  0  0
   -1.7545   -1.8127    0.0000 C   0  0  0  0  0  0  0  0  0  0  0  0
   -1.1120   -3.1681    0.0000 N   0  0  0  0  0  0  0  0  0  0  0  0
    0.3831   -3.2893    0.0000 C   0  0  0  0  0  0  0  0  0  0  0  0
    1.2357   -2.0552    0.0000 N   0  0  0  0  0  0  0  0  0  0  0  0
    0.5931   -0.6997    0.0000 C   0  0  0  0  0  0  0  0  0  0  0  0
    1.4457    0.5344    0.0000 N   0  0  0  0  0  0  0  0  0  0  0  0
    2.9407    0.4132    0.0000 C   0  0  0  0  0  0  0  0  0  0  0  0
    3.5833   -0.9422    0.0000 C   0  0  0  0  0  0  0  0  0  0  0  0
    5.0784   -1.0635    0.0000 C   0  0  0  0  0  0  0  0  0  0  0  0
    5.9309    0.1707    0.0000 C   0  0  0  0  0  0  0  0  0  0  0  0
    5.2884    1.5261    0.0000 C   0  0  0  0  0  0  0  0  0  0  0  0
    3.7933    1.6473    0.0000 C   0  0  0  0  0  0  0  0  0  0  0  0
    3.1507    3.0027    0.0000 F   0  0  0  0  0  0  0  0  0  0  0  0
   -0.9020   -0.5785    0.0000 C   0  0  0  0  0  0  0  0  0  0  0  0
   -1.5445    0.7769    0.0000 C   0  0  0  0  0  0  0  0  0  0  0  0
   -3.0396    0.8982    0.0000 C   0  0  0  0  0  0  0  0  0  0  0  0
   -3.6822    2.2536    0.0000 O   0  0  0  0  0  0  0  0  0  0  0  0
   -2.8296    3.4877    0.0000 C   0  0  0  0  0  0  0  0  0  0  0  0
  1  2  1  0
  2  3  1  0
  3  4  2  0
  4  5  1  0
  5  6  2  0
  6  7  1  0
  7  8  2  0
  8  9  1  0
  9 10  1  0
 10 11  1  0
 11 12  2  0
 12 13  1  0
 13 14  2  0
 14 15  1  0
 15 16  2  0
 16 17  1  0
  9 18  2  0
 18 19  1  0
 19 20  2  0
 20 21  1  0
 21 22  1  0
 20  3  1  0
 18  5  1  0
 16 11  1  0
M  END
>  <ChEMBL_ID>  (29) 
CHEMBL1204360

>  <SMILES>  (29) 
COc1cc2ncnc(Nc3ccccc3F)c2cc1OC

>  <MPO_Hit_Score>  (29) 
0.58779999999999999

>  <Tanimoto_to_Gefitinib>  (29) 
0.44119999999999998

>  <MolecularWeight>  (29) 
299.31

>  <LogP>  (29) 
3.5299999999999998

>  <TPSA>  (29) 
56.270000000000003

$$$$
CHEMBL542733
     RDKit          2D

 23 25  0  0  0  0  0  0  0  0999 V2000
   -7.8180    0.9861    0.0000 C   0  0  0  0  0  0  0  0  0  0  0  0
   -6.8906   -0.1929    0.0000 O   0  0  0  0  0  0  0  0  0  0  0  0
   -5.4059    0.0208    0.0000 C   0  0  0  0  0  0  0  0  0  0  0  0
   -4.8486    1.4135    0.0000 C   0  0  0  0  0  0  0  0  0  0  0  0
   -3.3639    1.6271    0.0000 C   0  0  0  0  0  0  0  0  0  0  0  0
   -2.4365    0.4482    0.0000 C   0  0  0  0  0  0  0  0  0  0  0  0
   -0.9518    0.6619    0.0000 N   0  0  0  0  0  0  0  0  0  0  0  0
   -0.0244   -0.5171    0.0000 C   0  0  0  0  0  0  0  0  0  0  0  0
   -0.5817   -1.9097    0.0000 N   0  0  0  0  0  0  0  0  0  0  0  0
    0.3457   -3.0887    0.0000 C   0  0  0  0  0  0  0  0  0  0  0  0
    1.8304   -2.8750    0.0000 N   0  0  0  0  0  0  0  0  0  0  0  0
    2.3877   -1.4823    0.0000 C   0  0  0  0  0  0  0  0  0  0  0  0
    3.8724   -1.2687    0.0000 C   0  0  0  0  0  0  0  0  0  0  0  0
    4.4297    0.1240    0.0000 C   0  0  0  0  0  0  0  0  0  0  0  0
    5.9144    0.3377    0.0000 O   0  0  0  0  0  0  0  0  0  0  0  0
    6.8418   -0.8413    0.0000 C   0  0  0  0  0  0  0  0  0  0  0  0
    3.5023    1.3029    0.0000 C   0  0  0  0  0  0  0  0  0  0  0  0
    4.0596    2.6956    0.0000 O   0  0  0  0  0  0  0  0  0  0  0  0
    3.1322    3.8745    0.0000 C   0  0  0  0  0  0  0  0  0  0  0  0
    2.0176    1.0892    0.0000 C   0  0  0  0  0  0  0  0  0  0  0  0
    1.4603   -0.3034    0.0000 C   0  0  0  0  0  0  0  0  0  0  0  0
   -2.9938   -0.9444    0.0000 C   0  0  0  0  0  0  0  0  0  0  0  0
   -4.4785   -1.1581    0.0000 C   0  0  0  0  0  0  0  0  0  0  0  0
  1  2  1  0
  2  3  1  0
  3  4  1  0
  4  5  2  0
  5  6  1  0
  6  7  1  0
  7  8  1  0
  8  9  1  0
  9 10  2  0
 10 11  1  0
 11 12  2  0
 12 13  1  0
 13 14  2  0
 14 15  1  0
 15 16  1  0
 14 17  1  0
 17 18  1  0
 18 19  1  0
 17 20  2  0
 20 21  1  0
  6 22  2  0
 22 23  1  0
 23  3  2  0
 21  8  2  0
 21 12  1  0
M  END
>  <ChEMBL_ID>  (30) 
CHEMBL542733

>  <SMILES>  (30) 
COc1ccc(Nc2ncnc3cc(OC)c(OC)cc23)cc1

>  <MPO_Hit_Score>  (30) 
0.58650000000000002

>  <Tanimoto_to_Gefitinib>  (30) 
0.46150000000000002

>  <MolecularWeight>  (30) 
311.33999999999997

>  <LogP>  (30) 
3.3999999999999999

>  <TPSA>  (30) 
65.5

$$$$
CHEMBL3774471
     RDKit          2D

 32 36  0  0  0  0  0  0  0  0999 V2000
    7.3785   -4.7918    0.0000 F   0  0  0  0  0  0  0  0  0  0  0  0
    6.2596   -3.7928    0.0000 C   0  0  0  0  0  0  0  0  0  0  0  0
    4.8349   -4.2623    0.0000 C   0  0  0  0  0  0  0  0  0  0  0  0
    3.7160   -3.2633    0.0000 C   0  0  0  0  0  0  0  0  0  0  0  0
    4.0217   -1.7948    0.0000 C   0  0  0  0  0  0  0  0  0  0  0  0
    2.9028   -0.7958    0.0000 N   0  0  0  0  0  0  0  0  0  0  0  0
    3.2085    0.6727    0.0000 C   0  0  0  0  0  0  0  0  0  0  0  0
    4.6331    1.1423    0.0000 N   0  0  0  0  0  0  0  0  0  0  0  0
    4.9388    2.6108    0.0000 C   0  0  0  0  0  0  0  0  0  0  0  0
    3.8198    3.6098    0.0000 N   0  0  0  0  0  0  0  0  0  0  0  0
    2.3952    3.1403    0.0000 C   0  0  0  0  0  0  0  0  0  0  0  0
    1.2763    4.1393    0.0000 C   0  0  0  0  0  0  0  0  0  0  0  0
   -0.1483    3.6697    0.0000 C   0  0  0  0  0  0  0  0  0  0  0  0
   -1.2673    4.6687    0.0000 O   0  0  0  0  0  0  0  0  0  0  0  0
   -2.6919    4.1992    0.0000 C   0  0  0  0  0  0  0  0  0  0  0  0
   -2.9976    2.7307    0.0000 C   0  0  0  0  0  0  0  0  0  0  0  0
   -4.4222    2.2612    0.0000 O   0  0  0  0  0  0  0  0  0  0  0  0
   -1.8786    1.7317    0.0000 N   0  0  0  0  0  0  0  0  0  0  0  0
   -2.1843    0.2632    0.0000 C   0  0  0  0  0  0  0  0  0  0  0  0
   -3.6090   -0.2063    0.0000 C   0  0  0  0  0  0  0  0  0  0  0  0
   -3.9146   -1.6749    0.0000 C   0  0  0  0  0  0  0  0  0  0  0  0
   -5.3393   -2.1444    0.0000 N   0  0  0  0  0  0  0  0  0  0  0  0
   -6.4582   -1.1454    0.0000 C   0  0  0  0  0  0  0  0  0  0  0  0
   -7.8828   -1.6149    0.0000 C   0  0  0  0  0  0  0  0  0  0  0  0
   -8.1885   -3.0834    0.0000 O   0  0  0  0  0  0  0  0  0  0  0  0
   -7.0696   -4.0824    0.0000 C   0  0  0  0  0  0  0  0  0  0  0  0
   -5.6450   -3.6129    0.0000 C   0  0  0  0  0  0  0  0  0  0  0  0
   -0.4540    2.2012    0.0000 C   0  0  0  0  0  0  0  0  0  0  0  0
    0.6649    1.2022    0.0000 C   0  0  0  0  0  0  0  0  0  0  0  0
    2.0895    1.6717    0.0000 C   0  0  0  0  0  0  0  0  0  0  0  0
    5.4463   -1.3252    0.0000 C   0  0  0  0  0  0  0  0  0  0  0  0
    6.5653   -2.3242    0.0000 C   0  0  0  0  0  0  0  0  0  0  0  0
  1  2  1  0
  2  3  1  0
  3  4  2  0
  4  5  1  0
  5  6  1  0
  6  7  1  0
  7  8  1  0
  8  9  2  0
  9 10  1  0
 10 11  2  0
 11 12  1  0
 12 13  2  0
 13 14  1  0
 14 15  1  0
 15 16  1  0
 16 17  2  0
 16 18  1  0
 18 19  1  0
 19 20  1  0
 20 21  1  0
 21 22  1  0
 22 23  1  0
 23 24  1  0
 24 25  1  0
 25 26  1  0
 26 27  1  0
 18 28  1  0
 28 29  2  0
 29 30  1  0
  5 31  2  0
 31 32  1  0
 32  2  2  0
 30  7  2  0
 30 11  1  0
 28 13  1  0
 27 22  1  0
M  END
>  <ChEMBL_ID>  (31) 
CHEMBL3774471

>  <SMILES>  (31) 
O=C1COc2cc3ncnc(Nc4ccc(F)cc4)c3cc2N1CCCN1CCOCC1

>  <MPO_Hit_Score>  (31) 
0.58150000000000002

>  <Tanimoto_to_Gefitinib>  (31) 
0.46339999999999998

>  <MolecularWeight>  (31) 
437.48000000000002

>  <LogP>  (31) 
2.96

>  <TPSA>  (31) 
79.819999999999993

$$$$
CHEMBL3612563
     RDKit          2D

 27 30  0  0  0  0  0  0  0  0999 V2000
   -0.7498    4.9475    0.0000 C   0  0  0  0  0  0  0  0  0  0  0  0
   -2.1582    4.4313    0.0000 O   0  0  0  0  0  0  0  0  0  0  0  0
   -2.4153    2.9535    0.0000 C   0  0  0  0  0  0  0  0  0  0  0  0
   -3.8237    2.4373    0.0000 C   0  0  0  0  0  0  0  0  0  0  0  0
   -4.0809    0.9595    0.0000 N   0  0  0  0  0  0  0  0  0  0  0  0
   -5.4276    0.2989    0.0000 C   0  0  0  0  0  0  0  0  0  0  0  0
   -6.7536    1.0001    0.0000 O   0  0  0  0  0  0  0  0  0  0  0  0
   -5.2155   -1.1860    0.0000 O   0  0  0  0  0  0  0  0  0  0  0  0
   -3.7377   -1.4432    0.0000 C   0  0  0  0  0  0  0  0  0  0  0  0
   -2.9399   -2.7135    0.0000 C   0  0  0  0  0  0  0  0  0  0  0  0
   -1.4409   -2.6577    0.0000 C   0  0  0  0  0  0  0  0  0  0  0  0
   -0.6432   -3.9280    0.0000 N   0  0  0  0  0  0  0  0  0  0  0  0
    0.8558   -3.8723    0.0000 C   0  0  0  0  0  0  0  0  0  0  0  0
    1.5570   -2.5463    0.0000 N   0  0  0  0  0  0  0  0  0  0  0  0
    0.7592   -1.2760    0.0000 C   0  0  0  0  0  0  0  0  0  0  0  0
    1.4605    0.0500    0.0000 N   0  0  0  0  0  0  0  0  0  0  0  0
    2.9594    0.1057    0.0000 C   0  0  0  0  0  0  0  0  0  0  0  0
    3.7572   -1.1645    0.0000 C   0  0  0  0  0  0  0  0  0  0  0  0
    5.2561   -1.1088    0.0000 C   0  0  0  0  0  0  0  0  0  0  0  0
    5.9573    0.2172    0.0000 C   0  0  0  0  0  0  0  0  0  0  0  0
    7.4563    0.2729    0.0000 F   0  0  0  0  0  0  0  0  0  0  0  0
    5.1596    1.4875    0.0000 C   0  0  0  0  0  0  0  0  0  0  0  0
    5.8608    2.8135    0.0000 F   0  0  0  0  0  0  0  0  0  0  0  0
    3.6606    1.4317    0.0000 C   0  0  0  0  0  0  0  0  0  0  0  0
   -0.7397   -1.3317    0.0000 C   0  0  0  0  0  0  0  0  0  0  0  0
   -1.5375   -0.0614    0.0000 C   0  0  0  0  0  0  0  0  0  0  0  0
   -3.0364   -0.1172    0.0000 C   0  0  0  0  0  0  0  0  0  0  0  0
  1  2  1  0
  2  3  1  0
  3  4  1  0
  4  5  1  0
  5  6  1  0
  6  7  2  0
  6  8  1  0
  8  9  1  0
  9 10  2  0
 10 11  1  0
 11 12  2  0
 12 13  1  0
 13 14  2  0
 14 15  1  0
 15 16  1  0
 16 17  1  0
 17 18  1  0
 18 19  2  0
 19 20  1  0
 20 21  1  0
 20 22  2  0
 22 23  1  0
 22 24  1  0
 15 25  2  0
 25 26  1  0
 26 27  2  0
 27  5  1  0
 27  9  1  0
 25 11  1  0
 24 17  2  0
M  END
>  <ChEMBL_ID>  (32) 
CHEMBL3612563

>  <SMILES>  (32) 
COCCn1c(=O)oc2cc3ncnc(Nc4ccc(F)c(F)c4)c3cc21

>  <MPO_Hit_Score>  (32) 
0.57940000000000003

>  <Tanimoto_to_Gefitinib>  (32) 
0.41980000000000001

>  <MolecularWeight>  (32) 
372.32999999999998

>  <LogP>  (32) 
3.21

>  <TPSA>  (32) 
82.180000000000007

$$$$
CHEMBL2425088
     RDKit          2D

 31 35  0  0  0  0  0  0  0  0999 V2000
   -3.1479   -5.0903    0.0000 C   0  0  0  0  0  0  0  0  0  0  0  0
   -1.6913   -5.4485    0.0000 O   0  0  0  0  0  0  0  0  0  0  0  0
   -0.6527   -4.3662    0.0000 C   0  0  0  0  0  0  0  0  0  0  0  0
    0.8038   -4.7244    0.0000 C   0  0  0  0  0  0  0  0  0  0  0  0
    1.8424   -3.6421    0.0000 C   0  0  0  0  0  0  0  0  0  0  0  0
    3.2990   -4.0003    0.0000 N   0  0  0  0  0  0  0  0  0  0  0  0
    4.3375   -2.9180    0.0000 C   0  0  0  0  0  0  0  0  0  0  0  0
    3.9194   -1.4774    0.0000 N   0  0  0  0  0  0  0  0  0  0  0  0
    2.4628   -1.1192    0.0000 C   0  0  0  0  0  0  0  0  0  0  0  0
    2.0448    0.3214    0.0000 N   0  0  0  0  0  0  0  0  0  0  0  0
    3.0833    1.4037    0.0000 C   0  0  0  0  0  0  0  0  0  0  0  0
    4.5399    1.0455    0.0000 C   0  0  0  0  0  0  0  0  0  0  0  0
    5.5784    2.1278    0.0000 C   0  0  0  0  0  0  0  0  0  0  0  0
    5.1604    3.5684    0.0000 C   0  0  0  0  0  0  0  0  0  0  0  0
    6.1989    4.6507    0.0000 F   0  0  0  0  0  0  0  0  0  0  0  0
    3.7038    3.9266    0.0000 C   0  0  0  0  0  0  0  0  0  0  0  0
    3.2857    5.3672    0.0000 Cl  0  0  0  0  0  0  0  0  0  0  0  0
    2.6652    2.8443    0.0000 C   0  0  0  0  0  0  0  0  0  0  0  0
    1.4243   -2.2015    0.0000 C   0  0  0  0  0  0  0  0  0  0  0  0
   -0.0323   -1.8433    0.0000 C   0  0  0  0  0  0  0  0  0  0  0  0
   -1.0708   -2.9256    0.0000 C   0  0  0  0  0  0  0  0  0  0  0  0
   -2.5274   -2.5674    0.0000 O   0  0  0  0  0  0  0  0  0  0  0  0
   -2.9455   -1.1269    0.0000 C   0  0  0  0  0  0  0  0  0  0  0  0
   -4.4021   -0.7686    0.0000 C   0  0  0  0  0  0  0  0  0  0  0  0
   -4.8201    0.6719    0.0000 N   0  0  0  0  0  0  0  0  0  0  0  0
   -4.0971    1.9862    0.0000 C   0  0  0  0  0  0  0  0  0  0  0  0
   -5.4114    2.7092    0.0000 C   0  0  0  0  0  0  0  0  0  0  0  0
   -4.6884    4.0234    0.0000 C   0  0  0  0  0  0  0  0  0  0  0  0
   -6.0026    4.7465    0.0000 C   0  0  0  0  0  0  0  0  0  0  0  0
   -6.7256    3.4322    0.0000 O   0  0  0  0  0  0  0  0  0  0  0  0
   -6.1344    1.3949    0.0000 C   0  0  0  0  0  0  0  0  0  0  0  0
  1  2  1  0
  2  3  1  0
  3  4  2  0
  4  5  1  0
  5  6  2  0
  6  7  1  0
  7  8  2  0
  8  9  1  0
  9 10  1  0
 10 11  1  0
 11 12  1  0
 12 13  2  0
 13 14  1  0
 14 15  1  0
 14 16  2  0
 16 17  1  0
 16 18  1  0
  9 19  2  0
 19 20  1  0
 20 21  2  0
 21 22  1  0
 22 23  1  0
 23 24  1  0
 24 25  1  0
 25 26  1  0
 26 27  1  0
 27 28  1  0
 28 29  1  0
 29 30  1  0
 27 31  1  0
 21  3  1  0
 19  5  1  0
 18 11  2  0
 31 25  1  0
 30 27  1  0
M  END
>  <ChEMBL_ID>  (33) 
CHEMBL2425088

>  <SMILES>  (33) 
COc1cc2ncnc(Nc3ccc(F)c(Cl)c3)c2cc1OCCN1CC2(CCO2)C1

>  <MPO_Hit_Score>  (33) 
0.57620000000000005

>  <Tanimoto_to_Gefitinib>  (33) 
0.70830000000000004

>  <MolecularWeight>  (33) 
444.88999999999999

>  <LogP>  (33) 
4.0300000000000002

>  <TPSA>  (33) 
68.739999999999995

$$$$
CHEMBL544833
     RDKit          2D

 25 27  0  0  0  0  0  0  0  0999 V2000
   -7.3373    1.7974    0.0000 C   0  0  0  0  0  0  0  0  0  0  0  0
   -6.5018    0.5517    0.0000 O   0  0  0  0  0  0  0  0  0  0  0  0
   -5.0051    0.6525    0.0000 C   0  0  0  0  0  0  0  0  0  0  0  0
   -4.3441    1.9990    0.0000 C   0  0  0  0  0  0  0  0  0  0  0  0
   -2.8475    2.0998    0.0000 C   0  0  0  0  0  0  0  0  0  0  0  0
   -2.0119    0.8540    0.0000 C   0  0  0  0  0  0  0  0  0  0  0  0
   -0.5153    0.9548    0.0000 N   0  0  0  0  0  0  0  0  0  0  0  0
    0.3203   -0.2909    0.0000 C   0  0  0  0  0  0  0  0  0  0  0  0
   -0.3408   -1.6374    0.0000 N   0  0  0  0  0  0  0  0  0  0  0  0
    0.4948   -2.8831    0.0000 C   0  0  0  0  0  0  0  0  0  0  0  0
    1.9914   -2.7823    0.0000 N   0  0  0  0  0  0  0  0  0  0  0  0
    2.6525   -1.4359    0.0000 C   0  0  0  0  0  0  0  0  0  0  0  0
    4.1491   -1.3351    0.0000 C   0  0  0  0  0  0  0  0  0  0  0  0
    4.8101    0.0114    0.0000 C   0  0  0  0  0  0  0  0  0  0  0  0
    6.3067    0.1122    0.0000 O   0  0  0  0  0  0  0  0  0  0  0  0
    7.1423   -1.1335    0.0000 C   0  0  0  0  0  0  0  0  0  0  0  0
    3.9745    1.2571    0.0000 C   0  0  0  0  0  0  0  0  0  0  0  0
    4.6356    2.6036    0.0000 O   0  0  0  0  0  0  0  0  0  0  0  0
    3.8000    3.8493    0.0000 C   0  0  0  0  0  0  0  0  0  0  0  0
    2.4779    1.1564    0.0000 C   0  0  0  0  0  0  0  0  0  0  0  0
    1.8169   -0.1901    0.0000 C   0  0  0  0  0  0  0  0  0  0  0  0
   -2.6730   -0.4925    0.0000 C   0  0  0  0  0  0  0  0  0  0  0  0
   -4.1696   -0.5932    0.0000 C   0  0  0  0  0  0  0  0  0  0  0  0
   -4.8306   -1.9397    0.0000 O   0  0  0  0  0  0  0  0  0  0  0  0
   -3.9950   -3.1854    0.0000 C   0  0  0  0  0  0  0  0  0  0  0  0
  1  2  1  0
  2  3  1  0
  3  4  1  0
  4  5  2  0
  5  6  1  0
  6  7  1  0
  7  8  1  0
  8  9  1  0
  9 10  2  0
 10 11  1  0
 11 12  2  0
 12 13  1  0
 13 14  2  0
 14 15  1  0
 15 16  1  0
 14 17  1  0
 17 18  1  0
 18 19  1  0
 17 20  2  0
 20 21  1  0
  6 22  2  0
 22 23  1  0
 23 24  1  0
 24 25  1  0
 23  3  2  0
 21  8  2  0
 21 12  1  0
M  END
>  <ChEMBL_ID>  (34) 
CHEMBL544833

>  <SMILES>  (34) 
COc1ccc(Nc2ncnc3cc(OC)c(OC)cc23)cc1OC

>  <MPO_Hit_Score>  (34) 
0.57589999999999997

>  <Tanimoto_to_Gefitinib>  (34) 
0.49209999999999998

>  <MolecularWeight>  (34) 
341.37

>  <LogP>  (34) 
3.4100000000000001

>  <TPSA>  (34) 
74.730000000000004

$$$$
CHEMBL3612561
     RDKit          2D

 27 30  0  0  0  0  0  0  0  0999 V2000
   -0.7498    4.9475    0.0000 C   0  0  0  0  0  0  0  0  0  0  0  0
   -2.1582    4.4313    0.0000 O   0  0  0  0  0  0  0  0  0  0  0  0
   -2.4153    2.9535    0.0000 C   0  0  0  0  0  0  0  0  0  0  0  0
   -3.8237    2.4373    0.0000 C   0  0  0  0  0  0  0  0  0  0  0  0
   -4.0809    0.9595    0.0000 N   0  0  0  0  0  0  0  0  0  0  0  0
   -5.4276    0.2989    0.0000 C   0  0  0  0  0  0  0  0  0  0  0  0
   -6.7536    1.0001    0.0000 O   0  0  0  0  0  0  0  0  0  0  0  0
   -5.2155   -1.1860    0.0000 O   0  0  0  0  0  0  0  0  0  0  0  0
   -3.7377   -1.4432    0.0000 C   0  0  0  0  0  0  0  0  0  0  0  0
   -2.9399   -2.7135    0.0000 C   0  0  0  0  0  0  0  0  0  0  0  0
   -1.4409   -2.6577    0.0000 C   0  0  0  0  0  0  0  0  0  0  0  0
   -0.6432   -3.9280    0.0000 N   0  0  0  0  0  0  0  0  0  0  0  0
    0.8558   -3.8723    0.0000 C   0  0  0  0  0  0  0  0  0  0  0  0
    1.5570   -2.5463    0.0000 N   0  0  0  0  0  0  0  0  0  0  0  0
    0.7592   -1.2760    0.0000 C   0  0  0  0  0  0  0  0  0  0  0  0
    1.4605    0.0500    0.0000 N   0  0  0  0  0  0  0  0  0  0  0  0
    2.9594    0.1057    0.0000 C   0  0  0  0  0  0  0  0  0  0  0  0
    3.7572   -1.1645    0.0000 C   0  0  0  0  0  0  0  0  0  0  0  0
    5.2561   -1.1088    0.0000 C   0  0  0  0  0  0  0  0  0  0  0  0
    5.9573    0.2172    0.0000 C   0  0  0  0  0  0  0  0  0  0  0  0
    7.4563    0.2729    0.0000 F   0  0  0  0  0  0  0  0  0  0  0  0
    5.1596    1.4875    0.0000 C   0  0  0  0  0  0  0  0  0  0  0  0
    5.8608    2.8135    0.0000 Cl  0  0  0  0  0  0  0  0  0  0  0  0
    3.6606    1.4317    0.0000 C   0  0  0  0  0  0  0  0  0  0  0  0
   -0.7397   -1.3317    0.0000 C   0  0  0  0  0  0  0  0  0  0  0  0
   -1.5375   -0.0614    0.0000 C   0  0  0  0  0  0  0  0  0  0  0  0
   -3.0364   -0.1172    0.0000 C   0  0  0  0  0  0  0  0  0  0  0  0
  1  2  1  0
  2  3  1  0
  3  4  1  0
  4  5  1  0
  5  6  1  0
  6  7  2  0
  6  8  1  0
  8  9  1  0
  9 10  2  0
 10 11  1  0
 11 12  2  0
 12 13  1  0
 13 14  2  0
 14 15  1  0
 15 16  1  0
 16 17  1  0
 17 18  1  0
 18 19  2  0
 19 20  1  0
 20 21  1  0
 20 22  2  0
 22 23  1  0
 22 24  1  0
 15 25  2  0
 25 26  1  0
 26 27  2  0
 27  5  1  0
 27  9  1  0
 25 11  1  0
 24 17  2  0
M  END
>  <ChEMBL_ID>  (35) 
CHEMBL3612561

>  <SMILES>  (35) 
COCCn1c(=O)oc2cc3ncnc(Nc4ccc(F)c(Cl)c4)c3cc21

>  <MPO_Hit_Score>  (35) 
0.57430000000000003

>  <Tanimoto_to_Gefitinib>  (35) 
0.51280000000000003

>  <MolecularWeight>  (35) 
388.79000000000002

>  <LogP>  (35) 
3.7200000000000002

>  <TPSA>  (35) 
82.180000000000007

$$$$
CHEMBL3818062
     RDKit          2D

 31 34  0  0  0  0  0  0  0  0999 V2000
   -3.6414   -5.1667    0.0000 C   0  0  0  0  0  0  0  0  0  0  0  0
   -3.4618   -3.6775    0.0000 O   0  0  0  0  0  0  0  0  0  0  0  0
   -2.0823   -3.0885    0.0000 C   0  0  0  0  0  0  0  0  0  0  0  0
   -0.8824   -3.9886    0.0000 C   0  0  0  0  0  0  0  0  0  0  0  0
    0.4971   -3.3996    0.0000 C   0  0  0  0  0  0  0  0  0  0  0  0
    1.6970   -4.2997    0.0000 N   0  0  0  0  0  0  0  0  0  0  0  0
    3.0765   -3.7107    0.0000 C   0  0  0  0  0  0  0  0  0  0  0  0
    3.2561   -2.2215    0.0000 N   0  0  0  0  0  0  0  0  0  0  0  0
    2.0562   -1.3213    0.0000 C   0  0  0  0  0  0  0  0  0  0  0  0
    2.2358    0.1679    0.0000 N   0  0  0  0  0  0  0  0  0  0  0  0
    3.6153    0.7570    0.0000 C   0  0  0  0  0  0  0  0  0  0  0  0
    4.8152   -0.1432    0.0000 C   0  0  0  0  0  0  0  0  0  0  0  0
    6.1947    0.4459    0.0000 C   0  0  0  0  0  0  0  0  0  0  0  0
    6.3743    1.9351    0.0000 C   0  0  0  0  0  0  0  0  0  0  0  0
    7.7538    2.5241    0.0000 F   0  0  0  0  0  0  0  0  0  0  0  0
    5.1744    2.8352    0.0000 C   0  0  0  0  0  0  0  0  0  0  0  0
    5.3540    4.3244    0.0000 Cl  0  0  0  0  0  0  0  0  0  0  0  0
    3.7949    2.2462    0.0000 C   0  0  0  0  0  0  0  0  0  0  0  0
    0.6767   -1.9104    0.0000 C   0  0  0  0  0  0  0  0  0  0  0  0
   -0.5232   -1.0102    0.0000 C   0  0  0  0  0  0  0  0  0  0  0  0
   -1.9027   -1.5993    0.0000 C   0  0  0  0  0  0  0  0  0  0  0  0
   -3.1025   -0.6991    0.0000 N   0  0  0  0  0  0  0  0  0  0  0  0
   -2.9229    0.7901    0.0000 C   0  0  0  0  0  0  0  0  0  0  0  0
   -1.5434    1.3791    0.0000 O   0  0  0  0  0  0  0  0  0  0  0  0
   -4.1228    1.6902    0.0000 C   0  0  0  0  0  0  0  0  0  0  0  0
   -5.5563    1.2486    0.0000 N   0  0  0  0  0  0  0  0  0  0  0  0
   -6.4193    2.4755    0.0000 C   0  0  0  0  0  0  0  0  0  0  0  0
   -7.9192    2.4985    0.0000 O   0  0  0  0  0  0  0  0  0  0  0  0
   -5.5192    3.6754    0.0000 O   0  0  0  0  0  0  0  0  0  0  0  0
   -4.0999    3.1901    0.0000 C   0  0  0  0  0  0  0  0  0  0  0  0
   -2.8730    4.0531    0.0000 C   0  0  0  0  0  0  0  0  0  0  0  0
  1  2  1  0
  2  3  1  0
  3  4  2  0
  4  5  1  0
  5  6  2  0
  6  7  1  0
  7  8  2  0
  8  9  1  0
  9 10  1  0
 10 11  1  0
 11 12  1  0
 12 13  2  0
 13 14  1  0
 14 15  1  0
 14 16  2  0
 16 17  1  0
 16 18  1  0
  9 19  2  0
 19 20  1  0
 20 21  2  0
 21 22  1  0
 22 23  1  0
 23 24  2  0
 25 23  1  1
 25 26  1  0
 26 27  1  0
 27 28  2  0
 27 29  1  0
 29 30  1  0
 30 31  1  6
 21  3  1  0
 19  5  1  0
 18 11  2  0
 30 25  1  0
M  END
>  <ChEMBL_ID>  (36) 
CHEMBL3818062

>  <SMILES>  (36) 
COc1cc2ncnc(Nc3ccc(F)c(Cl)c3)c2cc1NC(=O)[C@H]1NC(=O)O[C@@H]1C

>  <MPO_Hit_Score>  (36) 
0.57350000000000001

>  <Tanimoto_to_Gefitinib>  (36) 
0.4819

>  <MolecularWeight>  (36) 
445.83999999999997

>  <LogP>  (36) 
3.6099999999999999

>  <TPSA>  (36) 
114.47

$$$$
CHEMBL3775285
     RDKit          2D

 32 36  0  0  0  0  0  0  0  0999 V2000
    7.8723   -2.3127    0.0000 F   0  0  0  0  0  0  0  0  0  0  0  0
    6.4275   -2.7159    0.0000 C   0  0  0  0  0  0  0  0  0  0  0  0
    6.0543   -4.1688    0.0000 C   0  0  0  0  0  0  0  0  0  0  0  0
    4.6095   -4.5720    0.0000 C   0  0  0  0  0  0  0  0  0  0  0  0
    3.5379   -3.5223    0.0000 C   0  0  0  0  0  0  0  0  0  0  0  0
    3.9111   -2.0695    0.0000 C   0  0  0  0  0  0  0  0  0  0  0  0
    2.8396   -1.0199    0.0000 N   0  0  0  0  0  0  0  0  0  0  0  0
    3.2128    0.4330    0.0000 C   0  0  0  0  0  0  0  0  0  0  0  0
    4.6576    0.8362    0.0000 N   0  0  0  0  0  0  0  0  0  0  0  0
    5.0308    2.2890    0.0000 C   0  0  0  0  0  0  0  0  0  0  0  0
    3.9592    3.3386    0.0000 N   0  0  0  0  0  0  0  0  0  0  0  0
    2.5145    2.9354    0.0000 C   0  0  0  0  0  0  0  0  0  0  0  0
    1.4429    3.9851    0.0000 C   0  0  0  0  0  0  0  0  0  0  0  0
   -0.0019    3.5819    0.0000 C   0  0  0  0  0  0  0  0  0  0  0  0
   -1.0735    4.6315    0.0000 O   0  0  0  0  0  0  0  0  0  0  0  0
   -2.5183    4.2283    0.0000 C   0  0  0  0  0  0  0  0  0  0  0  0
   -2.8915    2.7755    0.0000 C   0  0  0  0  0  0  0  0  0  0  0  0
   -4.3363    2.3723    0.0000 O   0  0  0  0  0  0  0  0  0  0  0  0
   -1.8199    1.7259    0.0000 N   0  0  0  0  0  0  0  0  0  0  0  0
   -2.1932    0.2730    0.0000 C   0  0  0  0  0  0  0  0  0  0  0  0
   -3.6380   -0.1302    0.0000 C   0  0  0  0  0  0  0  0  0  0  0  0
   -4.0112   -1.5830    0.0000 C   0  0  0  0  0  0  0  0  0  0  0  0
   -5.4560   -1.9862    0.0000 N   0  0  0  0  0  0  0  0  0  0  0  0
   -6.5276   -0.9365    0.0000 C   0  0  0  0  0  0  0  0  0  0  0  0
   -7.9724   -1.3397    0.0000 C   0  0  0  0  0  0  0  0  0  0  0  0
   -8.3456   -2.7926    0.0000 O   0  0  0  0  0  0  0  0  0  0  0  0
   -7.2740   -3.8422    0.0000 C   0  0  0  0  0  0  0  0  0  0  0  0
   -5.8292   -3.4390    0.0000 C   0  0  0  0  0  0  0  0  0  0  0  0
   -0.3751    2.1290    0.0000 C   0  0  0  0  0  0  0  0  0  0  0  0
    0.6964    1.0794    0.0000 C   0  0  0  0  0  0  0  0  0  0  0  0
    2.1412    1.4826    0.0000 C   0  0  0  0  0  0  0  0  0  0  0  0
    5.3559   -1.6663    0.0000 C   0  0  0  0  0  0  0  0  0  0  0  0
  1  2  1  0
  2  3  1  0
  3  4  2  0
  4  5  1  0
  5  6  2  0
  6  7  1  0
  7  8  1  0
  8  9  1  0
  9 10  2  0
 10 11  1  0
 11 12  2  0
 12 13  1  0
 13 14  2  0
 14 15  1  0
 15 16  1  0
 16 17  1  0
 17 18  2  0
 17 19  1  0
 19 20  1  0
 20 21  1  0
 21 22  1  0
 22 23  1  0
 23 24  1  0
 24 25  1  0
 25 26  1  0
 26 27  1  0
 27 28  1  0
 19 29  1  0
 29 30  2  0
 30 31  1  0
  6 32  1  0
 32  2  2  0
 31  8  2  0
 31 12  1  0
 29 14  1  0
 28 23  1  0
M  END
>  <ChEMBL_ID>  (37) 
CHEMBL3775285

>  <SMILES>  (37) 
O=C1COc2cc3ncnc(Nc4cccc(F)c4)c3cc2N1CCCN1CCOCC1

>  <MPO_Hit_Score>  (37) 
0.57340000000000002

>  <Tanimoto_to_Gefitinib>  (37) 
0.4471

>  <MolecularWeight>  (37) 
437.48000000000002

>  <LogP>  (37) 
2.96

>  <TPSA>  (37) 
79.819999999999993

$$$$
CHEMBL2064376
     RDKit          2D

 32 36  0  0  0  0  0  0  0  0999 V2000
    8.2128   -4.8759    0.0000 C   0  0  0  0  0  0  0  0  0  0  0  0
    8.2100   -3.3759    0.0000 O   0  0  0  0  0  0  0  0  0  0  0  0
    6.9096   -2.6283    0.0000 C   0  0  0  0  0  0  0  0  0  0  0  0
    5.6119   -3.3807    0.0000 C   0  0  0  0  0  0  0  0  0  0  0  0
    4.3115   -2.6331    0.0000 C   0  0  0  0  0  0  0  0  0  0  0  0
    4.3087   -1.1331    0.0000 C   0  0  0  0  0  0  0  0  0  0  0  0
    3.0083   -0.3855    0.0000 N   0  0  0  0  0  0  0  0  0  0  0  0
    3.0055    1.1145    0.0000 C   0  0  0  0  0  0  0  0  0  0  0  0
    4.3031    1.8669    0.0000 N   0  0  0  0  0  0  0  0  0  0  0  0
    4.3003    3.3669    0.0000 C   0  0  0  0  0  0  0  0  0  0  0  0
    2.9999    4.1145    0.0000 N   0  0  0  0  0  0  0  0  0  0  0  0
    1.7023    3.3621    0.0000 C   0  0  0  0  0  0  0  0  0  0  0  0
    0.4018    4.1096    0.0000 C   0  0  0  0  0  0  0  0  0  0  0  0
   -0.8958    3.3572    0.0000 C   0  0  0  0  0  0  0  0  0  0  0  0
   -2.3232    3.8181    0.0000 O   0  0  0  0  0  0  0  0  0  0  0  0
   -3.2027    2.6029    0.0000 C   0  0  0  0  0  0  0  0  0  0  0  0
   -4.7027    2.6002    0.0000 O   0  0  0  0  0  0  0  0  0  0  0  0
   -2.3187    1.3911    0.0000 N   0  0  0  0  0  0  0  0  0  0  0  0
   -2.7796   -0.0364    0.0000 C   0  0  0  0  0  0  0  0  0  0  0  0
   -4.2462   -0.3510    0.0000 C   0  0  0  0  0  0  0  0  0  0  0  0
   -4.7071   -1.7784    0.0000 C   0  0  0  0  0  0  0  0  0  0  0  0
   -6.1738   -2.0930    0.0000 N   0  0  0  0  0  0  0  0  0  0  0  0
   -7.1795   -0.9802    0.0000 C   0  0  0  0  0  0  0  0  0  0  0  0
   -8.6462   -1.2948    0.0000 C   0  0  0  0  0  0  0  0  0  0  0  0
   -9.1070   -2.7222    0.0000 O   0  0  0  0  0  0  0  0  0  0  0  0
   -8.1013   -3.8351    0.0000 C   0  0  0  0  0  0  0  0  0  0  0  0
   -6.6346   -3.5205    0.0000 C   0  0  0  0  0  0  0  0  0  0  0  0
   -0.8930    1.8572    0.0000 C   0  0  0  0  0  0  0  0  0  0  0  0
    0.4074    1.1096    0.0000 C   0  0  0  0  0  0  0  0  0  0  0  0
    1.7051    1.8621    0.0000 C   0  0  0  0  0  0  0  0  0  0  0  0
    5.6064   -0.3807    0.0000 C   0  0  0  0  0  0  0  0  0  0  0  0
    6.9068   -1.1283    0.0000 C   0  0  0  0  0  0  0  0  0  0  0  0
  1  2  1  0
  2  3  1  0
  3  4  1  0
  4  5  2  0
  5  6  1  0
  6  7  1  0
  7  8  1  0
  8  9  1  0
  9 10  2  0
 10 11  1  0
 11 12  2  0
 12 13  1  0
 13 14  2  0
 14 15  1  0
 15 16  1  0
 16 17  2  0
 16 18  1  0
 18 19  1  0
 19 20  1  0
 20 21  1  0
 21 22  1  0
 22 23  1  0
 23 24  1  0
 24 25  1  0
 25 26  1  0
 26 27  1  0
 18 28  1  0
 28 29  2  0
 29 30  1  0
  6 31  2  0
 31 32  1  0
 32  3  2  0
 30  8  2  0
 30 12  1  0
 28 14  1  0
 27 22  1  0
M  END
>  <ChEMBL_ID>  (38) 
CHEMBL2064376

>  <SMILES>  (38) 
COc1ccc(Nc2ncnc3cc4oc(=O)n(CCCN5CCOCC5)c4cc23)cc1

>  <MPO_Hit_Score>  (38) 
0.57189999999999996

>  <Tanimoto_to_Gefitinib>  (38) 
0.49380000000000002

>  <MolecularWeight>  (38) 
435.48000000000002

>  <LogP>  (38) 
3.0099999999999998

>  <TPSA>  (38) 
94.650000000000006

$$$$
CHEMBL3774712
     RDKit          2D

 32 36  0  0  0  0  0  0  0  0999 V2000
    7.3785   -4.7918    0.0000 C   0  0  0  0  0  0  0  0  0  0  0  0
    6.2596   -3.7928    0.0000 C   0  0  0  0  0  0  0  0  0  0  0  0
    4.8349   -4.2623    0.0000 C   0  0  0  0  0  0  0  0  0  0  0  0
    3.7160   -3.2633    0.0000 C   0  0  0  0  0  0  0  0  0  0  0  0
    4.0217   -1.7948    0.0000 C   0  0  0  0  0  0  0  0  0  0  0  0
    2.9028   -0.7958    0.0000 N   0  0  0  0  0  0  0  0  0  0  0  0
    3.2085    0.6727    0.0000 C   0  0  0  0  0  0  0  0  0  0  0  0
    4.6331    1.1423    0.0000 N   0  0  0  0  0  0  0  0  0  0  0  0
    4.9388    2.6108    0.0000 C   0  0  0  0  0  0  0  0  0  0  0  0
    3.8198    3.6098    0.0000 N   0  0  0  0  0  0  0  0  0  0  0  0
    2.3952    3.1403    0.0000 C   0  0  0  0  0  0  0  0  0  0  0  0
    1.2763    4.1393    0.0000 C   0  0  0  0  0  0  0  0  0  0  0  0
   -0.1483    3.6697    0.0000 C   0  0  0  0  0  0  0  0  0  0  0  0
   -1.2673    4.6687    0.0000 O   0  0  0  0  0  0  0  0  0  0  0  0
   -2.6919    4.1992    0.0000 C   0  0  0  0  0  0  0  0  0  0  0  0
   -2.9976    2.7307    0.0000 C   0  0  0  0  0  0  0  0  0  0  0  0
   -4.4222    2.2612    0.0000 O   0  0  0  0  0  0  0  0  0  0  0  0
   -1.8786    1.7317    0.0000 N   0  0  0  0  0  0  0  0  0  0  0  0
   -2.1843    0.2632    0.0000 C   0  0  0  0  0  0  0  0  0  0  0  0
   -3.6090   -0.2063    0.0000 C   0  0  0  0  0  0  0  0  0  0  0  0
   -3.9146   -1.6749    0.0000 C   0  0  0  0  0  0  0  0  0  0  0  0
   -5.3393   -2.1444    0.0000 N   0  0  0  0  0  0  0  0  0  0  0  0
   -6.4582   -1.1454    0.0000 C   0  0  0  0  0  0  0  0  0  0  0  0
   -7.8828   -1.6149    0.0000 C   0  0  0  0  0  0  0  0  0  0  0  0
   -8.1885   -3.0834    0.0000 O   0  0  0  0  0  0  0  0  0  0  0  0
   -7.0696   -4.0824    0.0000 C   0  0  0  0  0  0  0  0  0  0  0  0
   -5.6450   -3.6129    0.0000 C   0  0  0  0  0  0  0  0  0  0  0  0
   -0.4540    2.2012    0.0000 C   0  0  0  0  0  0  0  0  0  0  0  0
    0.6649    1.2022    0.0000 C   0  0  0  0  0  0  0  0  0  0  0  0
    2.0895    1.6717    0.0000 C   0  0  0  0  0  0  0  0  0  0  0  0
    5.4463   -1.3252    0.0000 C   0  0  0  0  0  0  0  0  0  0  0  0
    6.5653   -2.3242    0.0000 C   0  0  0  0  0  0  0  0  0  0  0  0
  1  2  1  0
  2  3  1  0
  3  4  2  0
  4  5  1  0
  5  6  1  0
  6  7  1  0
  7  8  1  0
  8  9  2  0
  9 10  1  0
 10 11  2  0
 11 12  1  0
 12 13  2  0
 13 14  1  0
 14 15  1  0
 15 16  1  0
 16 17  2  0
 16 18  1  0
 18 19  1  0
 19 20  1  0
 20 21  1  0
 21 22  1  0
 22 23  1  0
 23 24  1  0
 24 25  1  0
 25 26  1  0
 26 27  1  0
 18 28  1  0
 28 29  2  0
 29 30  1  0
  5 31  2  0
 31 32  1  0
 32  2  2  0
 30  7  2  0
 30 11  1  0
 28 13  1  0
 27 22  1  0
M  END
>  <ChEMBL_ID>  (39) 
CHEMBL3774712

>  <SMILES>  (39) 
Cc1ccc(Nc2ncnc3cc4c(cc23)N(CCCN2CCOCC2)C(=O)CO4)cc1

>  <MPO_Hit_Score>  (39) 
0.57079999999999997

>  <Tanimoto_to_Gefitinib>  (39) 
0.44579999999999997

>  <MolecularWeight>  (39) 
433.50999999999999

>  <LogP>  (39) 
3.1299999999999999

>  <TPSA>  (39) 
79.819999999999993

$$$$
CHEMBL2425091
     RDKit          2D

 30 33  0  0  0  0  0  0  0  0999 V2000
  -10.2162    0.4577    0.0000 C   0  0  0  0  0  0  0  0  0  0  0  0
   -9.7300   -0.9614    0.0000 O   0  0  0  0  0  0  0  0  0  0  0  0
   -8.2580   -1.2498    0.0000 C   0  0  0  0  0  0  0  0  0  0  0  0
   -7.0131   -0.4129    0.0000 C   0  0  0  0  0  0  0  0  0  0  0  0
   -6.1762   -1.6578    0.0000 N   0  0  0  0  0  0  0  0  0  0  0  0
   -4.7042   -1.9462    0.0000 C   0  0  0  0  0  0  0  0  0  0  0  0
   -3.7184   -0.8157    0.0000 C   0  0  0  0  0  0  0  0  0  0  0  0
   -2.2464   -1.1041    0.0000 O   0  0  0  0  0  0  0  0  0  0  0  0
   -1.2606    0.0264    0.0000 C   0  0  0  0  0  0  0  0  0  0  0  0
    0.2114   -0.2621    0.0000 C   0  0  0  0  0  0  0  0  0  0  0  0
    1.1972    0.8685    0.0000 C   0  0  0  0  0  0  0  0  0  0  0  0
    2.6692    0.5800    0.0000 C   0  0  0  0  0  0  0  0  0  0  0  0
    3.1554   -0.8390    0.0000 N   0  0  0  0  0  0  0  0  0  0  0  0
    4.6274   -1.1274    0.0000 C   0  0  0  0  0  0  0  0  0  0  0  0
    5.1136   -2.5465    0.0000 C   0  0  0  0  0  0  0  0  0  0  0  0
    6.5856   -2.8349    0.0000 C   0  0  0  0  0  0  0  0  0  0  0  0
    7.5714   -1.7044    0.0000 C   0  0  0  0  0  0  0  0  0  0  0  0
    9.0434   -1.9928    0.0000 F   0  0  0  0  0  0  0  0  0  0  0  0
    7.0852   -0.2853    0.0000 C   0  0  0  0  0  0  0  0  0  0  0  0
    8.0710    0.8452    0.0000 Cl  0  0  0  0  0  0  0  0  0  0  0  0
    5.6132    0.0031    0.0000 C   0  0  0  0  0  0  0  0  0  0  0  0
    3.6550    1.7106    0.0000 N   0  0  0  0  0  0  0  0  0  0  0  0
    3.1688    3.1296    0.0000 C   0  0  0  0  0  0  0  0  0  0  0  0
    1.6968    3.4181    0.0000 N   0  0  0  0  0  0  0  0  0  0  0  0
    0.7110    2.2875    0.0000 C   0  0  0  0  0  0  0  0  0  0  0  0
   -0.7610    2.5760    0.0000 C   0  0  0  0  0  0  0  0  0  0  0  0
   -1.7468    1.4454    0.0000 C   0  0  0  0  0  0  0  0  0  0  0  0
   -3.2188    1.7339    0.0000 O   0  0  0  0  0  0  0  0  0  0  0  0
   -3.7050    3.1529    0.0000 C   0  0  0  0  0  0  0  0  0  0  0  0
   -7.4211   -2.4947    0.0000 C   0  0  0  0  0  0  0  0  0  0  0  0
  1  2  1  0
  2  3  1  0
  3  4  1  0
  4  5  1  0
  5  6  1  0
  6  7  1  0
  7  8  1  0
  8  9  1  0
  9 10  2  0
 10 11  1  0
 11 12  2  0
 12 13  1  0
 13 14  1  0
 14 15  1  0
 15 16  2  0
 16 17  1  0
 17 18  1  0
 17 19  2  0
 19 20  1  0
 19 21  1  0
 12 22  1  0
 22 23  2  0
 23 24  1  0
 24 25  2  0
 25 26  1  0
 26 27  2  0
 27 28  1  0
 28 29  1  0
  5 30  1  0
 30  3  1  0
 27  9  1  0
 25 11  1  0
 21 14  2  0
M  END
>  <ChEMBL_ID>  (40) 
CHEMBL2425091

>  <SMILES>  (40) 
COc1cc2ncnc(Nc3ccc(F)c(Cl)c3)c2cc1OCCN1CC(OC)C1

>  <MPO_Hit_Score>  (40) 
0.56969999999999998

>  <Tanimoto_to_Gefitinib>  (40) 
0.69999999999999996

>  <MolecularWeight>  (40) 
432.88

>  <LogP>  (40) 
3.8799999999999999

>  <TPSA>  (40) 
68.739999999999995

$$$$
CHEMBL2064383
     RDKit          2D

 31 35  0  0  0  0  0  0  0  0999 V2000
    8.2069   -4.1175    0.0000 C   0  0  0  0  0  0  0  0  0  0  0  0
    6.9620   -3.2807    0.0000 C   0  0  0  0  0  0  0  0  0  0  0  0
    5.6149   -3.9405    0.0000 C   0  0  0  0  0  0  0  0  0  0  0  0
    4.3700   -3.1038    0.0000 C   0  0  0  0  0  0  0  0  0  0  0  0
    4.4721   -1.6072    0.0000 C   0  0  0  0  0  0  0  0  0  0  0  0
    3.2272   -0.7705    0.0000 N   0  0  0  0  0  0  0  0  0  0  0  0
    3.3294    0.7260    0.0000 C   0  0  0  0  0  0  0  0  0  0  0  0
    4.6765    1.3858    0.0000 N   0  0  0  0  0  0  0  0  0  0  0  0
    4.7787    2.8823    0.0000 C   0  0  0  0  0  0  0  0  0  0  0  0
    3.5337    3.7190    0.0000 N   0  0  0  0  0  0  0  0  0  0  0  0
    2.1866    3.0593    0.0000 C   0  0  0  0  0  0  0  0  0  0  0  0
    0.9417    3.8960    0.0000 C   0  0  0  0  0  0  0  0  0  0  0  0
   -0.4054    3.2362    0.0000 C   0  0  0  0  0  0  0  0  0  0  0  0
   -1.7971    3.7959    0.0000 O   0  0  0  0  0  0  0  0  0  0  0  0
   -2.7594    2.6452    0.0000 C   0  0  0  0  0  0  0  0  0  0  0  0
   -4.2559    2.7474    0.0000 O   0  0  0  0  0  0  0  0  0  0  0  0
   -1.9624    1.3745    0.0000 N   0  0  0  0  0  0  0  0  0  0  0  0
   -2.5221   -0.0172    0.0000 C   0  0  0  0  0  0  0  0  0  0  0  0
   -4.0071   -0.2284    0.0000 C   0  0  0  0  0  0  0  0  0  0  0  0
   -4.5667   -1.6201    0.0000 C   0  0  0  0  0  0  0  0  0  0  0  0
   -6.0518   -1.8313    0.0000 N   0  0  0  0  0  0  0  0  0  0  0  0
   -6.9772   -0.6509    0.0000 C   0  0  0  0  0  0  0  0  0  0  0  0
   -8.4623   -0.8621    0.0000 C   0  0  0  0  0  0  0  0  0  0  0  0
   -9.0219   -2.2538    0.0000 O   0  0  0  0  0  0  0  0  0  0  0  0
   -8.0965   -3.4342    0.0000 C   0  0  0  0  0  0  0  0  0  0  0  0
   -6.6114   -3.2230    0.0000 C   0  0  0  0  0  0  0  0  0  0  0  0
   -0.5076    1.7397    0.0000 C   0  0  0  0  0  0  0  0  0  0  0  0
    0.7373    0.9030    0.0000 C   0  0  0  0  0  0  0  0  0  0  0  0
    2.0844    1.5628    0.0000 C   0  0  0  0  0  0  0  0  0  0  0  0
    5.8192   -0.9475    0.0000 C   0  0  0  0  0  0  0  0  0  0  0  0
    7.0642   -1.7842    0.0000 C   0  0  0  0  0  0  0  0  0  0  0  0
  1  2  1  0
  2  3  1  0
  3  4  2  0
  4  5  1  0
  5  6  1  0
  6  7  1  0
  7  8  1  0
  8  9  2  0
  9 10  1  0
 10 11  2  0
 11 12  1  0
 12 13  2  0
 13 14  1  0
 14 15  1  0
 15 16  2  0
 15 17  1  0
 17 18  1  0
 18 19  1  0
 19 20  1  0
 20 21  1  0
 21 22  1  0
 22 23  1  0
 23 24  1  0
 24 25  1  0
 25 26  1  0
 17 27  1  0
 27 28  2  0
 28 29  1  0
  5 30  2  0
 30 31  1  0
 31  2  2  0
 29  7  2  0
 29 11  1  0
 27 13  1  0
 26 21  1  0
M  END
>  <ChEMBL_ID>  (41) 
CHEMBL2064383

>  <SMILES>  (41) 
Cc1ccc(Nc2ncnc3cc4oc(=O)n(CCCN5CCOCC5)c4cc23)cc1

>  <MPO_Hit_Score>  (41) 
0.56669999999999998

>  <Tanimoto_to_Gefitinib>  (41) 
0.45679999999999998

>  <MolecularWeight>  (41) 
419.49000000000001

>  <LogP>  (41) 
3.3100000000000001

>  <TPSA>  (41) 
85.420000000000002

$$$$
CHEMBL56802
     RDKit          2D

 22 24  0  0  0  0  0  0  0  0999 V2000
   -6.1245    1.3539    0.0000 C   0  0  0  0  0  0  0  0  0  0  0  0
   -5.5269   -0.0219    0.0000 O   0  0  0  0  0  0  0  0  0  0  0  0
   -4.0366   -0.1923    0.0000 C   0  0  0  0  0  0  0  0  0  0  0  0
   -3.4390   -1.5681    0.0000 C   0  0  0  0  0  0  0  0  0  0  0  0
   -1.9487   -1.7385    0.0000 C   0  0  0  0  0  0  0  0  0  0  0  0
   -1.3511   -3.1143    0.0000 N   0  0  0  0  0  0  0  0  0  0  0  0
    0.1392   -3.2847    0.0000 C   0  0  0  0  0  0  0  0  0  0  0  0
    1.0319   -2.0792    0.0000 N   0  0  0  0  0  0  0  0  0  0  0  0
    0.4343   -0.7034    0.0000 C   0  0  0  0  0  0  0  0  0  0  0  0
    1.3270    0.5021    0.0000 N   0  0  0  0  0  0  0  0  0  0  0  0
    2.8173    0.3317    0.0000 C   0  0  0  0  0  0  0  0  0  0  0  0
    3.4149   -1.0441    0.0000 C   0  0  0  0  0  0  0  0  0  0  0  0
    4.9052   -1.2145    0.0000 C   0  0  0  0  0  0  0  0  0  0  0  0
    5.7979   -0.0090    0.0000 C   0  0  0  0  0  0  0  0  0  0  0  0
    5.2002    1.3668    0.0000 C   0  0  0  0  0  0  0  0  0  0  0  0
    6.0929    2.5722    0.0000 C   0  0  0  0  0  0  0  0  0  0  0  0
    3.7099    1.5371    0.0000 C   0  0  0  0  0  0  0  0  0  0  0  0
   -1.0560   -0.5330    0.0000 C   0  0  0  0  0  0  0  0  0  0  0  0
   -1.6536    0.8428    0.0000 C   0  0  0  0  0  0  0  0  0  0  0  0
   -3.1439    1.0131    0.0000 C   0  0  0  0  0  0  0  0  0  0  0  0
   -3.7415    2.3890    0.0000 O   0  0  0  0  0  0  0  0  0  0  0  0
   -2.8488    3.5944    0.0000 C   0  0  0  0  0  0  0  0  0  0  0  0
  1  2  1  0
  2  3  1  0
  3  4  2  0
  4  5  1  0
  5  6  2  0
  6  7  1  0
  7  8  2  0
  8  9  1  0
  9 10  1  0
 10 11  1  0
 11 12  2  0
 12 13  1  0
 13 14  2  0
 14 15  1  0
 15 16  1  0
 15 17  2  0
  9 18  2  0
 18 19  1  0
 19 20  2  0
 20 21  1  0
 21 22  1  0
 20  3  1  0
 18  5  1  0
 17 11  1  0
M  END
>  <ChEMBL_ID>  (42) 
CHEMBL56802

>  <SMILES>  (42) 
COc1cc2ncnc(Nc3cccc(C)c3)c2cc1OC

>  <MPO_Hit_Score>  (42) 
0.56630000000000003

>  <Tanimoto_to_Gefitinib>  (42) 
0.44119999999999998

>  <MolecularWeight>  (42) 
295.33999999999997

>  <LogP>  (42) 
3.7000000000000002

>  <TPSA>  (42) 
56.270000000000003

$$$$
CHEMBL3092318
     RDKit          2D

 33 37  0  0  0  0  0  0  0  0999 V2000
   -6.7309   -5.6436    0.0000 O   0  0  0  0  0  0  0  0  0  0  0  0
   -5.8474   -4.4313    0.0000 C   0  0  0  0  0  0  0  0  0  0  0  0
   -6.0799   -2.9494    0.0000 C   0  0  0  0  0  0  0  0  0  0  0  0
   -4.5980   -2.7170    0.0000 N   0  0  0  0  0  0  0  0  0  0  0  0
   -4.3655   -4.1988    0.0000 C   0  0  0  0  0  0  0  0  0  0  0  0
   -3.7146   -1.5047    0.0000 C   0  0  0  0  0  0  0  0  0  0  0  0
   -4.3227   -0.1335    0.0000 O   0  0  0  0  0  0  0  0  0  0  0  0
   -2.2230   -1.6637    0.0000 N   0  0  0  0  0  0  0  0  0  0  0  0
   -1.3396   -0.4515    0.0000 C   0  0  0  0  0  0  0  0  0  0  0  0
    0.1520   -0.6104    0.0000 C   0  0  0  0  0  0  0  0  0  0  0  0
    1.0354    0.6018    0.0000 C   0  0  0  0  0  0  0  0  0  0  0  0
    2.5270    0.4428    0.0000 C   0  0  0  0  0  0  0  0  0  0  0  0
    3.1351   -0.9284    0.0000 N   0  0  0  0  0  0  0  0  0  0  0  0
    4.6266   -1.0874    0.0000 C   0  0  0  0  0  0  0  0  0  0  0  0
    5.2347   -2.4586    0.0000 C   0  0  0  0  0  0  0  0  0  0  0  0
    6.7263   -2.6175    0.0000 C   0  0  0  0  0  0  0  0  0  0  0  0
    7.6097   -1.4053    0.0000 C   0  0  0  0  0  0  0  0  0  0  0  0
    9.1013   -1.5643    0.0000 F   0  0  0  0  0  0  0  0  0  0  0  0
    7.0016   -0.0341    0.0000 C   0  0  0  0  0  0  0  0  0  0  0  0
    7.8851    1.1781    0.0000 Cl  0  0  0  0  0  0  0  0  0  0  0  0
    5.5101    0.1249    0.0000 C   0  0  0  0  0  0  0  0  0  0  0  0
    3.4104    1.6551    0.0000 N   0  0  0  0  0  0  0  0  0  0  0  0
    2.8023    3.0263    0.0000 C   0  0  0  0  0  0  0  0  0  0  0  0
    1.3108    3.1852    0.0000 N   0  0  0  0  0  0  0  0  0  0  0  0
    0.4273    1.9730    0.0000 C   0  0  0  0  0  0  0  0  0  0  0  0
   -1.0642    2.1320    0.0000 C   0  0  0  0  0  0  0  0  0  0  0  0
   -1.9477    0.9197    0.0000 C   0  0  0  0  0  0  0  0  0  0  0  0
   -3.4392    1.0787    0.0000 O   0  0  0  0  0  0  0  0  0  0  0  0
   -4.0473    2.4499    0.0000 C   0  0  0  0  0  0  0  0  0  0  0  0
   -5.5141    2.7639    0.0000 C   0  0  0  0  0  0  0  0  0  0  0  0
   -5.6687    4.2559    0.0000 C   0  0  0  0  0  0  0  0  0  0  0  0
   -4.2975    4.8641    0.0000 O   0  0  0  0  0  0  0  0  0  0  0  0
   -3.2954    3.7479    0.0000 C   0  0  0  0  0  0  0  0  0  0  0  0
  1  2  1  0
  2  3  1  0
  3  4  1  0
  4  5  1  0
  4  6  1  0
  6  7  2  0
  6  8  1  0
  8  9  1  0
  9 10  2  0
 10 11  1  0
 11 12  2  0
 12 13  1  0
 13 14  1  0
 14 15  1  0
 15 16  2  0
 16 17  1  0
 17 18  1  0
 17 19  2  0
 19 20  1  0
 19 21  1  0
 12 22  1  0
 22 23  2  0
 23 24  1  0
 24 25  2  0
 25 26  1  0
 26 27  2  0
 27 28  1  0
 29 28  1  1
 29 30  1  0
 30 31  1  0
 31 32  1  0
 32 33  1  0
  5  2  1  0
 27  9  1  0
 25 11  1  0
 21 14  2  0
 33 29  1  0
M  END
>  <ChEMBL_ID>  (43) 
CHEMBL3092318

>  <SMILES>  (43) 
O=C(Nc1cc2c(Nc3ccc(F)c(Cl)c3)ncnc2cc1O[C@H]1CCOC1)N1CC(O)C1

>  <MPO_Hit_Score>  (43) 
0.56579999999999997

>  <Tanimoto_to_Gefitinib>  (43) 
0.44940000000000002

>  <MolecularWeight>  (43) 
473.88999999999999

>  <LogP>  (43) 
3.54

>  <TPSA>  (43) 
108.84

$$$$
CHEMBL206955
     RDKit          2D

 30 33  0  0  0  0  0  0  0  0999 V2000
   -4.7091   -4.2340    0.0000 C   0  0  0  0  0  0  0  0  0  0  0  0
   -4.2866   -2.7947    0.0000 O   0  0  0  0  0  0  0  0  0  0  0  0
   -2.8289   -2.4410    0.0000 C   0  0  0  0  0  0  0  0  0  0  0  0
   -1.7937   -3.5266    0.0000 C   0  0  0  0  0  0  0  0  0  0  0  0
   -0.3360   -3.1729    0.0000 C   0  0  0  0  0  0  0  0  0  0  0  0
    0.6992   -4.2584    0.0000 N   0  0  0  0  0  0  0  0  0  0  0  0
    2.1569   -3.9047    0.0000 C   0  0  0  0  0  0  0  0  0  0  0  0
    2.5794   -2.4655    0.0000 N   0  0  0  0  0  0  0  0  0  0  0  0
    1.5442   -1.3799    0.0000 C   0  0  0  0  0  0  0  0  0  0  0  0
    1.9668    0.0594    0.0000 N   0  0  0  0  0  0  0  0  0  0  0  0
    3.4245    0.4131    0.0000 C   0  0  0  0  0  0  0  0  0  0  0  0
    4.4596   -0.6725    0.0000 C   0  0  0  0  0  0  0  0  0  0  0  0
    5.9173   -0.3188    0.0000 C   0  0  0  0  0  0  0  0  0  0  0  0
    6.3399    1.1204    0.0000 C   0  0  0  0  0  0  0  0  0  0  0  0
    7.7976    1.4741    0.0000 F   0  0  0  0  0  0  0  0  0  0  0  0
    5.3047    2.2060    0.0000 C   0  0  0  0  0  0  0  0  0  0  0  0
    5.7273    3.6453    0.0000 Cl  0  0  0  0  0  0  0  0  0  0  0  0
    3.8470    1.8523    0.0000 C   0  0  0  0  0  0  0  0  0  0  0  0
    0.0865   -1.7336    0.0000 C   0  0  0  0  0  0  0  0  0  0  0  0
   -0.9486   -0.6480    0.0000 C   0  0  0  0  0  0  0  0  0  0  0  0
   -2.4063   -1.0017    0.0000 C   0  0  0  0  0  0  0  0  0  0  0  0
   -3.4415    0.0838    0.0000 C   0  0  0  0  0  0  0  0  0  0  0  0
   -3.0190    1.5231    0.0000 N   0  0  0  0  0  0  0  0  0  0  0  0
   -1.6062    2.0272    0.0000 C   0  0  0  0  0  0  0  0  0  0  0  0
   -1.6491    3.5266    0.0000 C   0  0  0  0  0  0  0  0  0  0  0  0
   -3.0884    3.9491    0.0000 C   0  0  0  0  0  0  0  0  0  0  0  0
   -3.9350    2.7109    0.0000 C   0  0  0  0  0  0  0  0  0  0  0  0
   -5.4344    2.6680    0.0000 C   0  0  0  0  0  0  0  0  0  0  0  0
   -6.2212    3.9450    0.0000 O   0  0  0  0  0  0  0  0  0  0  0  0
   -6.1469    1.3480    0.0000 N   0  0  0  0  0  0  0  0  0  0  0  0
  1  2  1  0
  2  3  1  0
  3  4  2  0
  4  5  1  0
  5  6  2  0
  6  7  1  0
  7  8  2  0
  8  9  1  0
  9 10  1  0
 10 11  1  0
 11 12  1  0
 12 13  2  0
 13 14  1  0
 14 15  1  0
 14 16  2  0
 16 17  1  0
 16 18  1  0
  9 19  2  0
 19 20  1  0
 20 21  2  0
 21 22  1  0
 22 23  1  0
 23 24  1  0
 24 25  1  0
 25 26  1  0
 26 27  1  0
 27 28  1  1
 28 29  2  0
 28 30  1  0
 21  3  1  0
 19  5  1  0
 18 11  2  0
 27 23  1  0
M  END
>  <ChEMBL_ID>  (44) 
CHEMBL206955

>  <SMILES>  (44) 
COc1cc2ncnc(Nc3ccc(F)c(Cl)c3)c2cc1CN1CCC[C@@H]1C(N)=O

>  <MPO_Hit_Score>  (44) 
0.56530000000000002

>  <Tanimoto_to_Gefitinib>  (44) 
0.5181

>  <MolecularWeight>  (44) 
429.88

>  <LogP>  (44) 
3.6200000000000001

>  <TPSA>  (44) 
93.370000000000005

$$$$
CHEMBL382638
     RDKit          2D

 30 33  0  0  0  0  0  0  0  0999 V2000
   -4.7091   -4.2340    0.0000 C   0  0  0  0  0  0  0  0  0  0  0  0
   -4.2866   -2.7947    0.0000 O   0  0  0  0  0  0  0  0  0  0  0  0
   -2.8289   -2.4410    0.0000 C   0  0  0  0  0  0  0  0  0  0  0  0
   -1.7937   -3.5266    0.0000 C   0  0  0  0  0  0  0  0  0  0  0  0
   -0.3360   -3.1729    0.0000 C   0  0  0  0  0  0  0  0  0  0  0  0
    0.6992   -4.2584    0.0000 N   0  0  0  0  0  0  0  0  0  0  0  0
    2.1569   -3.9047    0.0000 C   0  0  0  0  0  0  0  0  0  0  0  0
    2.5794   -2.4655    0.0000 N   0  0  0  0  0  0  0  0  0  0  0  0
    1.5442   -1.3799    0.0000 C   0  0  0  0  0  0  0  0  0  0  0  0
    1.9668    0.0594    0.0000 N   0  0  0  0  0  0  0  0  0  0  0  0
    3.4245    0.4131    0.0000 C   0  0  0  0  0  0  0  0  0  0  0  0
    4.4596   -0.6725    0.0000 C   0  0  0  0  0  0  0  0  0  0  0  0
    5.9173   -0.3188    0.0000 C   0  0  0  0  0  0  0  0  0  0  0  0
    6.3399    1.1204    0.0000 C   0  0  0  0  0  0  0  0  0  0  0  0
    7.7976    1.4741    0.0000 F   0  0  0  0  0  0  0  0  0  0  0  0
    5.3047    2.2060    0.0000 C   0  0  0  0  0  0  0  0  0  0  0  0
    5.7273    3.6453    0.0000 Cl  0  0  0  0  0  0  0  0  0  0  0  0
    3.8470    1.8523    0.0000 C   0  0  0  0  0  0  0  0  0  0  0  0
    0.0865   -1.7336    0.0000 C   0  0  0  0  0  0  0  0  0  0  0  0
   -0.9486   -0.6480    0.0000 C   0  0  0  0  0  0  0  0  0  0  0  0
   -2.4063   -1.0017    0.0000 C   0  0  0  0  0  0  0  0  0  0  0  0
   -3.4415    0.0838    0.0000 C   0  0  0  0  0  0  0  0  0  0  0  0
   -3.0190    1.5231    0.0000 N   0  0  0  0  0  0  0  0  0  0  0  0
   -1.6062    2.0272    0.0000 C   0  0  0  0  0  0  0  0  0  0  0  0
   -1.6491    3.5266    0.0000 C   0  0  0  0  0  0  0  0  0  0  0  0
   -3.0884    3.9491    0.0000 C   0  0  0  0  0  0  0  0  0  0  0  0
   -3.9350    2.7109    0.0000 C   0  0  0  0  0  0  0  0  0  0  0  0
   -5.4344    2.6680    0.0000 C   0  0  0  0  0  0  0  0  0  0  0  0
   -6.2212    3.9450    0.0000 O   0  0  0  0  0  0  0  0  0  0  0  0
   -6.1469    1.3480    0.0000 N   0  0  0  0  0  0  0  0  0  0  0  0
  1  2  1  0
  2  3  1  0
  3  4  2  0
  4  5  1  0
  5  6  2  0
  6  7  1  0
  7  8  2  0
  8  9  1  0
  9 10  1  0
 10 11  1  0
 11 12  1  0
 12 13  2  0
 13 14  1  0
 14 15  1  0
 14 16  2  0
 16 17  1  0
 16 18  1  0
  9 19  2  0
 19 20  1  0
 20 21  2  0
 21 22  1  0
 22 23  1  0
 23 24  1  0
 24 25  1  0
 25 26  1  0
 26 27  1  0
 27 28  1  6
 28 29  2  0
 28 30  1  0
 21  3  1  0
 19  5  1  0
 18 11  2  0
 27 23  1  0
M  END
>  <ChEMBL_ID>  (45) 
CHEMBL382638

>  <SMILES>  (45) 
COc1cc2ncnc(Nc3ccc(F)c(Cl)c3)c2cc1CN1CCC[C@H]1C(N)=O

>  <MPO_Hit_Score>  (45) 
0.56530000000000002

>  <Tanimoto_to_Gefitinib>  (45) 
0.5181

>  <MolecularWeight>  (45) 
429.88

>  <LogP>  (45) 
3.6200000000000001

>  <TPSA>  (45) 
93.370000000000005

$$$$
CHEMBL3775911
     RDKit          2D

 32 36  0  0  0  0  0  0  0  0999 V2000
    7.3785   -4.7918    0.0000 Cl  0  0  0  0  0  0  0  0  0  0  0  0
    6.2596   -3.7928    0.0000 C   0  0  0  0  0  0  0  0  0  0  0  0
    4.8349   -4.2623    0.0000 C   0  0  0  0  0  0  0  0  0  0  0  0
    3.7160   -3.2633    0.0000 C   0  0  0  0  0  0  0  0  0  0  0  0
    4.0217   -1.7948    0.0000 C   0  0  0  0  0  0  0  0  0  0  0  0
    2.9028   -0.7958    0.0000 N   0  0  0  0  0  0  0  0  0  0  0  0
    3.2085    0.6727    0.0000 C   0  0  0  0  0  0  0  0  0  0  0  0
    4.6331    1.1423    0.0000 N   0  0  0  0  0  0  0  0  0  0  0  0
    4.9388    2.6108    0.0000 C   0  0  0  0  0  0  0  0  0  0  0  0
    3.8198    3.6098    0.0000 N   0  0  0  0  0  0  0  0  0  0  0  0
    2.3952    3.1403    0.0000 C   0  0  0  0  0  0  0  0  0  0  0  0
    1.2763    4.1393    0.0000 C   0  0  0  0  0  0  0  0  0  0  0  0
   -0.1483    3.6697    0.0000 C   0  0  0  0  0  0  0  0  0  0  0  0
   -1.2673    4.6687    0.0000 O   0  0  0  0  0  0  0  0  0  0  0  0
   -2.6919    4.1992    0.0000 C   0  0  0  0  0  0  0  0  0  0  0  0
   -2.9976    2.7307    0.0000 C   0  0  0  0  0  0  0  0  0  0  0  0
   -4.4222    2.2612    0.0000 O   0  0  0  0  0  0  0  0  0  0  0  0
   -1.8786    1.7317    0.0000 N   0  0  0  0  0  0  0  0  0  0  0  0
   -2.1843    0.2632    0.0000 C   0  0  0  0  0  0  0  0  0  0  0  0
   -3.6090   -0.2063    0.0000 C   0  0  0  0  0  0  0  0  0  0  0  0
   -3.9146   -1.6749    0.0000 C   0  0  0  0  0  0  0  0  0  0  0  0
   -5.3393   -2.1444    0.0000 N   0  0  0  0  0  0  0  0  0  0  0  0
   -6.4582   -1.1454    0.0000 C   0  0  0  0  0  0  0  0  0  0  0  0
   -7.8828   -1.6149    0.0000 C   0  0  0  0  0  0  0  0  0  0  0  0
   -8.1885   -3.0834    0.0000 O   0  0  0  0  0  0  0  0  0  0  0  0
   -7.0696   -4.0824    0.0000 C   0  0  0  0  0  0  0  0  0  0  0  0
   -5.6450   -3.6129    0.0000 C   0  0  0  0  0  0  0  0  0  0  0  0
   -0.4540    2.2012    0.0000 C   0  0  0  0  0  0  0  0  0  0  0  0
    0.6649    1.2022    0.0000 C   0  0  0  0  0  0  0  0  0  0  0  0
    2.0895    1.6717    0.0000 C   0  0  0  0  0  0  0  0  0  0  0  0
    5.4463   -1.3252    0.0000 C   0  0  0  0  0  0  0  0  0  0  0  0
    6.5653   -2.3242    0.0000 C   0  0  0  0  0  0  0  0  0  0  0  0
  1  2  1  0
  2  3  1  0
  3  4  2  0
  4  5  1  0
  5  6  1  0
  6  7  1  0
  7  8  1  0
  8  9  2  0
  9 10  1  0
 10 11  2  0
 11 12  1  0
 12 13  2  0
 13 14  1  0
 14 15  1  0
 15 16  1  0
 16 17  2  0
 16 18  1  0
 18 19  1  0
 19 20  1  0
 20 21  1  0
 21 22  1  0
 22 23  1  0
 23 24  1  0
 24 25  1  0
 25 26  1  0
 26 27  1  0
 18 28  1  0
 28 29  2  0
 29 30  1  0
  5 31  2  0
 31 32  1  0
 32  2  2  0
 30  7  2  0
 30 11  1  0
 28 13  1  0
 27 22  1  0
M  END
>  <ChEMBL_ID>  (46) 
CHEMBL3775911

>  <SMILES>  (46) 
O=C1COc2cc3ncnc(Nc4ccc(Cl)cc4)c3cc2N1CCCN1CCOCC1

>  <MPO_Hit_Score>  (46) 
0.56459999999999999

>  <Tanimoto_to_Gefitinib>  (46) 
0.48149999999999998

>  <MolecularWeight>  (46) 
453.93000000000001

>  <LogP>  (46) 
3.4700000000000002

>  <TPSA>  (46) 
79.819999999999993

$$$$
CHEMBL3775459
     RDKit          2D

 32 36  0  0  0  0  0  0  0  0999 V2000
    7.8723   -2.3127    0.0000 C   0  0  0  0  0  0  0  0  0  0  0  0
    6.4275   -2.7159    0.0000 C   0  0  0  0  0  0  0  0  0  0  0  0
    6.0543   -4.1688    0.0000 C   0  0  0  0  0  0  0  0  0  0  0  0
    4.6095   -4.5720    0.0000 C   0  0  0  0  0  0  0  0  0  0  0  0
    3.5379   -3.5223    0.0000 C   0  0  0  0  0  0  0  0  0  0  0  0
    3.9111   -2.0695    0.0000 C   0  0  0  0  0  0  0  0  0  0  0  0
    2.8396   -1.0199    0.0000 N   0  0  0  0  0  0  0  0  0  0  0  0
    3.2128    0.4330    0.0000 C   0  0  0  0  0  0  0  0  0  0  0  0
    4.6576    0.8362    0.0000 N   0  0  0  0  0  0  0  0  0  0  0  0
    5.0308    2.2890    0.0000 C   0  0  0  0  0  0  0  0  0  0  0  0
    3.9592    3.3386    0.0000 N   0  0  0  0  0  0  0  0  0  0  0  0
    2.5145    2.9354    0.0000 C   0  0  0  0  0  0  0  0  0  0  0  0
    1.4429    3.9851    0.0000 C   0  0  0  0  0  0  0  0  0  0  0  0
   -0.0019    3.5819    0.0000 C   0  0  0  0  0  0  0  0  0  0  0  0
   -1.0735    4.6315    0.0000 O   0  0  0  0  0  0  0  0  0  0  0  0
   -2.5183    4.2283    0.0000 C   0  0  0  0  0  0  0  0  0  0  0  0
   -2.8915    2.7755    0.0000 C   0  0  0  0  0  0  0  0  0  0  0  0
   -4.3363    2.3723    0.0000 O   0  0  0  0  0  0  0  0  0  0  0  0
   -1.8199    1.7259    0.0000 N   0  0  0  0  0  0  0  0  0  0  0  0
   -2.1932    0.2730    0.0000 C   0  0  0  0  0  0  0  0  0  0  0  0
   -3.6380   -0.1302    0.0000 C   0  0  0  0  0  0  0  0  0  0  0  0
   -4.0112   -1.5830    0.0000 C   0  0  0  0  0  0  0  0  0  0  0  0
   -5.4560   -1.9862    0.0000 N   0  0  0  0  0  0  0  0  0  0  0  0
   -6.5276   -0.9365    0.0000 C   0  0  0  0  0  0  0  0  0  0  0  0
   -7.9724   -1.3397    0.0000 C   0  0  0  0  0  0  0  0  0  0  0  0
   -8.3456   -2.7926    0.0000 O   0  0  0  0  0  0  0  0  0  0  0  0
   -7.2740   -3.8422    0.0000 C   0  0  0  0  0  0  0  0  0  0  0  0
   -5.8292   -3.4390    0.0000 C   0  0  0  0  0  0  0  0  0  0  0  0
   -0.3751    2.1290    0.0000 C   0  0  0  0  0  0  0  0  0  0  0  0
    0.6964    1.0794    0.0000 C   0  0  0  0  0  0  0  0  0  0  0  0
    2.1412    1.4826    0.0000 C   0  0  0  0  0  0  0  0  0  0  0  0
    5.3559   -1.6663    0.0000 C   0  0  0  0  0  0  0  0  0  0  0  0
  1  2  1  0
  2  3  1  0
  3  4  2  0
  4  5  1  0
  5  6  2  0
  6  7  1  0
  7  8  1  0
  8  9  1  0
  9 10  2  0
 10 11  1  0
 11 12  2  0
 12 13  1  0
 13 14  2  0
 14 15  1  0
 15 16  1  0
 16 17  1  0
 17 18  2  0
 17 19  1  0
 19 20  1  0
 20 21  1  0
 21 22  1  0
 22 23  1  0
 23 24  1  0
 24 25  1  0
 25 26  1  0
 26 27  1  0
 27 28  1  0
 19 29  1  0
 29 30  2  0
 30 31  1  0
  6 32  1  0
 32  2  2  0
 31  8  2  0
 31 12  1  0
 29 14  1  0
 28 23  1  0
M  END
>  <ChEMBL_ID>  (47) 
CHEMBL3775459

>  <SMILES>  (47) 
Cc1cccc(Nc2ncnc3cc4c(cc23)N(CCCN2CCOCC2)C(=O)CO4)c1

>  <MPO_Hit_Score>  (47) 
0.56299999999999994

>  <Tanimoto_to_Gefitinib>  (47) 
0.43020000000000003

>  <MolecularWeight>  (47) 
433.50999999999999

>  <LogP>  (47) 
3.1299999999999999

>  <TPSA>  (47) 
79.819999999999993

$$$$
CHEMBL207674
     RDKit          2D

 31 34  0  0  0  0  0  0  0  0999 V2000
   -4.9465   -2.1974    0.0000 C   0  0  0  0  0  0  0  0  0  0  0  0
   -3.8524   -3.2236    0.0000 O   0  0  0  0  0  0  0  0  0  0  0  0
   -2.4167   -2.7891    0.0000 C   0  0  0  0  0  0  0  0  0  0  0  0
   -1.3226   -3.8152    0.0000 C   0  0  0  0  0  0  0  0  0  0  0  0
    0.1131   -3.3807    0.0000 C   0  0  0  0  0  0  0  0  0  0  0  0
    1.2072   -4.4068    0.0000 N   0  0  0  0  0  0  0  0  0  0  0  0
    2.6429   -3.9723    0.0000 C   0  0  0  0  0  0  0  0  0  0  0  0
    2.9845   -2.5118    0.0000 N   0  0  0  0  0  0  0  0  0  0  0  0
    1.8904   -1.4856    0.0000 C   0  0  0  0  0  0  0  0  0  0  0  0
    2.2320   -0.0251    0.0000 N   0  0  0  0  0  0  0  0  0  0  0  0
    3.6677    0.4094    0.0000 C   0  0  0  0  0  0  0  0  0  0  0  0
    4.7618   -0.6167    0.0000 C   0  0  0  0  0  0  0  0  0  0  0  0
    6.1975   -0.1822    0.0000 C   0  0  0  0  0  0  0  0  0  0  0  0
    6.5391    1.2784    0.0000 C   0  0  0  0  0  0  0  0  0  0  0  0
    5.4449    2.3045    0.0000 C   0  0  0  0  0  0  0  0  0  0  0  0
    5.7865    3.7651    0.0000 Cl  0  0  0  0  0  0  0  0  0  0  0  0
    4.0092    1.8700    0.0000 C   0  0  0  0  0  0  0  0  0  0  0  0
    2.9151    2.8961    0.0000 F   0  0  0  0  0  0  0  0  0  0  0  0
    0.4547   -1.9201    0.0000 C   0  0  0  0  0  0  0  0  0  0  0  0
   -0.6394   -0.8940    0.0000 C   0  0  0  0  0  0  0  0  0  0  0  0
   -2.0751   -1.3285    0.0000 C   0  0  0  0  0  0  0  0  0  0  0  0
   -3.1692   -0.3024    0.0000 C   0  0  0  0  0  0  0  0  0  0  0  0
   -2.8277    1.1582    0.0000 N   0  0  0  0  0  0  0  0  0  0  0  0
   -1.3920    1.5927    0.0000 C   0  0  0  0  0  0  0  0  0  0  0  0
   -1.0504    3.0533    0.0000 C   0  0  0  0  0  0  0  0  0  0  0  0
   -2.1445    4.0794    0.0000 O   0  0  0  0  0  0  0  0  0  0  0  0
   -3.5802    3.6449    0.0000 C   0  0  0  0  0  0  0  0  0  0  0  0
   -3.9218    2.1843    0.0000 C   0  0  0  0  0  0  0  0  0  0  0  0
   -5.3575    1.7499    0.0000 C   0  0  0  0  0  0  0  0  0  0  0  0
   -5.6991    0.2893    0.0000 O   0  0  0  0  0  0  0  0  0  0  0  0
   -6.4516    2.7760    0.0000 N   0  0  0  0  0  0  0  0  0  0  0  0
  1  2  1  0
  2  3  1  0
  3  4  2  0
  4  5  1  0
  5  6  2  0
  6  7  1  0
  7  8  2  0
  8  9  1  0
  9 10  1  0
 10 11  1  0
 11 12  2  0
 12 13  1  0
 13 14  2  0
 14 15  1  0
 15 16  1  0
 15 17  2  0
 17 18  1  0
  9 19  2  0
 19 20  1  0
 20 21  2  0
 21 22  1  0
 22 23  1  0
 23 24  1  0
 24 25  1  0
 25 26  1  0
 26 27  1  0
 27 28  1  0
 28 29  1  0
 29 30  2  0
 29 31  1  0
 21  3  1  0
 19  5  1  0
 17 11  1  0
 28 23  1  0
M  END
>  <ChEMBL_ID>  (48) 
CHEMBL207674

>  <SMILES>  (48) 
COc1cc2ncnc(Nc3cccc(Cl)c3F)c2cc1CN1CCOCC1C(N)=O

>  <MPO_Hit_Score>  (48) 
0.56189999999999996

>  <Tanimoto_to_Gefitinib>  (48) 
0.42859999999999998

>  <MolecularWeight>  (48) 
445.88

>  <LogP>  (48) 
2.8599999999999999

>  <TPSA>  (48) 
102.59999999999999

$$$$
CHEMBL3775148
     RDKit          2D

 31 35  0  0  0  0  0  0  0  0999 V2000
   -5.5338    3.0501    0.0000 O   0  0  0  0  0  0  0  0  0  0  0  0
   -5.0183    1.6415    0.0000 C   0  0  0  0  0  0  0  0  0  0  0  0
   -5.9805    0.4907    0.0000 C   0  0  0  0  0  0  0  0  0  0  0  0
   -5.4650   -0.9179    0.0000 O   0  0  0  0  0  0  0  0  0  0  0  0
   -3.9873   -1.1758    0.0000 C   0  0  0  0  0  0  0  0  0  0  0  0
   -3.4718   -2.5844    0.0000 C   0  0  0  0  0  0  0  0  0  0  0  0
   -1.9942   -2.8423    0.0000 C   0  0  0  0  0  0  0  0  0  0  0  0
   -1.4787   -4.2509    0.0000 N   0  0  0  0  0  0  0  0  0  0  0  0
   -0.0010   -4.5088    0.0000 C   0  0  0  0  0  0  0  0  0  0  0  0
    0.9612   -3.3581    0.0000 N   0  0  0  0  0  0  0  0  0  0  0  0
    0.4457   -1.9494    0.0000 C   0  0  0  0  0  0  0  0  0  0  0  0
    1.4078   -0.7987    0.0000 N   0  0  0  0  0  0  0  0  0  0  0  0
    2.8855   -1.0566    0.0000 C   0  0  0  0  0  0  0  0  0  0  0  0
    3.4010   -2.4652    0.0000 C   0  0  0  0  0  0  0  0  0  0  0  0
    4.8787   -2.7231    0.0000 C   0  0  0  0  0  0  0  0  0  0  0  0
    5.8408   -1.5724    0.0000 C   0  0  0  0  0  0  0  0  0  0  0  0
    5.3253   -0.1637    0.0000 C   0  0  0  0  0  0  0  0  0  0  0  0
    3.8477    0.0942    0.0000 C   0  0  0  0  0  0  0  0  0  0  0  0
   -1.0320   -1.6916    0.0000 C   0  0  0  0  0  0  0  0  0  0  0  0
   -1.5475   -0.2829    0.0000 C   0  0  0  0  0  0  0  0  0  0  0  0
   -3.0252   -0.0250    0.0000 C   0  0  0  0  0  0  0  0  0  0  0  0
   -3.5407    1.3836    0.0000 N   0  0  0  0  0  0  0  0  0  0  0  0
   -2.5785    2.5344    0.0000 C   0  0  0  0  0  0  0  0  0  0  0  0
   -1.1008    2.2765    0.0000 C   0  0  0  0  0  0  0  0  0  0  0  0
   -0.1386    3.4272    0.0000 C   0  0  0  0  0  0  0  0  0  0  0  0
    1.3390    3.1693    0.0000 N   0  0  0  0  0  0  0  0  0  0  0  0
    1.8545    1.7607    0.0000 C   0  0  0  0  0  0  0  0  0  0  0  0
    3.3322    1.5028    0.0000 C   0  0  0  0  0  0  0  0  0  0  0  0
    4.2943    2.6536    0.0000 O   0  0  0  0  0  0  0  0  0  0  0  0
    3.7789    4.0622    0.0000 C   0  0  0  0  0  0  0  0  0  0  0  0
    2.3012    4.3201    0.0000 C   0  0  0  0  0  0  0  0  0  0  0  0
  1  2  2  0
  2  3  1  0
  3  4  1  0
  4  5  1  0
  5  6  2  0
  6  7  1  0
  7  8  2  0
  8  9  1  0
  9 10  2  0
 10 11  1  0
 11 12  1  0
 12 13  1  0
 13 14  2  0
 14 15  1  0
 15 16  2  0
 16 17  1  0
 17 18  2  0
 11 19  2  0
 19 20  1  0
 20 21  2  0
 21 22  1  0
 22 23  1  0
 23 24  1  0
 24 25  1  0
 25 26  1  0
 26 27  1  0
 27 28  1  0
 28 29  1  0
 29 30  1  0
 30 31  1  0
 22  2  1  0
 21  5  1  0
 19  7  1  0
 18 13  1  0
 31 26  1  0
M  END
>  <ChEMBL_ID>  (49) 
CHEMBL3775148

>  <SMILES>  (49) 
O=C1COc2cc3ncnc(Nc4ccccc4)c3cc2N1CCCN1CCOCC1

>  <MPO_Hit_Score>  (49) 
0.55679999999999996

>  <Tanimoto_to_Gefitinib>  (49) 
0.42170000000000002

>  <MolecularWeight>  (49) 
419.49000000000001

>  <LogP>  (49) 
2.8199999999999998

>  <TPSA>  (49) 
79.819999999999993

$$$$
CHEMBL2064403
     RDKit          2D

 33 38  0  0  0  0  0  0  0  0999 V2000
   -7.0292    1.1994    0.0000 O   0  0  0  0  0  0  0  0  0  0  0  0
   -5.8287    0.3001    0.0000 C   0  0  0  0  0  0  0  0  0  0  0  0
   -5.8505   -1.1997    0.0000 O   0  0  0  0  0  0  0  0  0  0  0  0
   -4.4308   -1.6840    0.0000 C   0  0  0  0  0  0  0  0  0  0  0  0
   -3.8408   -3.0630    0.0000 C   0  0  0  0  0  0  0  0  0  0  0  0
   -2.3514   -3.2415    0.0000 C   0  0  0  0  0  0  0  0  0  0  0  0
   -1.7614   -4.6206    0.0000 N   0  0  0  0  0  0  0  0  0  0  0  0
   -0.2720   -4.7991    0.0000 C   0  0  0  0  0  0  0  0  0  0  0  0
    0.6273   -3.5986    0.0000 N   0  0  0  0  0  0  0  0  0  0  0  0
    0.0372   -2.2195    0.0000 C   0  0  0  0  0  0  0  0  0  0  0  0
    0.9364   -1.0190    0.0000 N   0  0  0  0  0  0  0  0  0  0  0  0
    2.4258   -1.1975    0.0000 C   0  0  0  0  0  0  0  0  0  0  0  0
    3.0159   -2.5765    0.0000 C   0  0  0  0  0  0  0  0  0  0  0  0
    4.5052   -2.7550    0.0000 C   0  0  0  0  0  0  0  0  0  0  0  0
    5.4045   -1.5545    0.0000 C   0  0  0  0  0  0  0  0  0  0  0  0
    6.8984   -1.4194    0.0000 N   0  0  0  0  0  0  0  0  0  0  0  0
    7.2316    0.0431    0.0000 N   0  0  0  0  0  0  0  0  0  0  0  0
    5.9436    0.8119    0.0000 C   0  0  0  0  0  0  0  0  0  0  0  0
    4.8144   -0.1754    0.0000 C   0  0  0  0  0  0  0  0  0  0  0  0
    3.3250    0.0031    0.0000 C   0  0  0  0  0  0  0  0  0  0  0  0
   -1.4522   -2.0410    0.0000 C   0  0  0  0  0  0  0  0  0  0  0  0
   -2.0422   -0.6619    0.0000 C   0  0  0  0  0  0  0  0  0  0  0  0
   -3.5316   -0.4834    0.0000 C   0  0  0  0  0  0  0  0  0  0  0  0
   -4.3955    0.7428    0.0000 N   0  0  0  0  0  0  0  0  0  0  0  0
   -3.9112    2.1625    0.0000 C   0  0  0  0  0  0  0  0  0  0  0  0
   -2.4396    2.4530    0.0000 C   0  0  0  0  0  0  0  0  0  0  0  0
   -1.9553    3.8726    0.0000 C   0  0  0  0  0  0  0  0  0  0  0  0
   -0.4837    4.1631    0.0000 N   0  0  0  0  0  0  0  0  0  0  0  0
    0.5036    3.0339    0.0000 C   0  0  0  0  0  0  0  0  0  0  0  0
    1.9752    3.3243    0.0000 C   0  0  0  0  0  0  0  0  0  0  0  0
    2.4595    4.7440    0.0000 O   0  0  0  0  0  0  0  0  0  0  0  0
    1.4721    5.8732    0.0000 C   0  0  0  0  0  0  0  0  0  0  0  0
    0.0005    5.5828    0.0000 C   0  0  0  0  0  0  0  0  0  0  0  0
  1  2  2  0
  2  3  1  0
  3  4  1  0
  4  5  2  0
  5  6  1  0
  6  7  2  0
  7  8  1  0
  8  9  2  0
  9 10  1  0
 10 11  1  0
 11 12  1  0
 12 13  1  0
 13 14  2  0
 14 15  1  0
 15 16  1  0
 16 17  1  0
 17 18  2  0
 18 19  1  0
 19 20  1  0
 10 21  2  0
 21 22  1  0
 22 23  2  0
 23 24  1  0
 24 25  1  0
 25 26  1  0
 26 27  1  0
 27 28  1  0
 28 29  1  0
 29 30  1  0
 30 31  1  0
 31 32  1  0
 32 33  1  0
 24  2  1  0
 23  4  1  0
 21  6  1  0
 20 12  2  0
 19 15  2  0
 33 28  1  0
M  END
>  <ChEMBL_ID>  (50) 
CHEMBL2064403

>  <SMILES>  (50) 
O=c1oc2cc3ncnc(Nc4ccc5[nH]ncc5c4)c3cc2n1CCCN1CCOCC1

>  <MPO_Hit_Score>  (50) 
0.55610000000000004

>  <Tanimoto_to_Gefitinib>  (50) 
0.41570000000000001

>  <MolecularWeight>  (50) 
445.48000000000002

>  <LogP>  (50) 
2.8799999999999999

>  <TPSA>  (50) 
114.09999999999999

$$$$
CHEMBL3774947
     RDKit          2D

 32 36  0  0  0  0  0  0  0  0999 V2000
    7.8723   -2.3127    0.0000 Cl  0  0  0  0  0  0  0  0  0  0  0  0
    6.4275   -2.7159    0.0000 C   0  0  0  0  0  0  0  0  0  0  0  0
    6.0543   -4.1688    0.0000 C   0  0  0  0  0  0  0  0  0  0  0  0
    4.6095   -4.5720    0.0000 C   0  0  0  0  0  0  0  0  0  0  0  0
    3.5379   -3.5223    0.0000 C   0  0  0  0  0  0  0  0  0  0  0  0
    3.9111   -2.0695    0.0000 C   0  0  0  0  0  0  0  0  0  0  0  0
    2.8396   -1.0199    0.0000 N   0  0  0  0  0  0  0  0  0  0  0  0
    3.2128    0.4330    0.0000 C   0  0  0  0  0  0  0  0  0  0  0  0
    4.6576    0.8362    0.0000 N   0  0  0  0  0  0  0  0  0  0  0  0
    5.0308    2.2890    0.0000 C   0  0  0  0  0  0  0  0  0  0  0  0
    3.9592    3.3386    0.0000 N   0  0  0  0  0  0  0  0  0  0  0  0
    2.5145    2.9354    0.0000 C   0  0  0  0  0  0  0  0  0  0  0  0
    1.4429    3.9851    0.0000 C   0  0  0  0  0  0  0  0  0  0  0  0
   -0.0019    3.5819    0.0000 C   0  0  0  0  0  0  0  0  0  0  0  0
   -1.0735    4.6315    0.0000 O   0  0  0  0  0  0  0  0  0  0  0  0
   -2.5183    4.2283    0.0000 C   0  0  0  0  0  0  0  0  0  0  0  0
   -2.8915    2.7755    0.0000 C   0  0  0  0  0  0  0  0  0  0  0  0
   -4.3363    2.3723    0.0000 O   0  0  0  0  0  0  0  0  0  0  0  0
   -1.8199    1.7259    0.0000 N   0  0  0  0  0  0  0  0  0  0  0  0
   -2.1932    0.2730    0.0000 C   0  0  0  0  0  0  0  0  0  0  0  0
   -3.6380   -0.1302    0.0000 C   0  0  0  0  0  0  0  0  0  0  0  0
   -4.0112   -1.5830    0.0000 C   0  0  0  0  0  0  0  0  0  0  0  0
   -5.4560   -1.9862    0.0000 N   0  0  0  0  0  0  0  0  0  0  0  0
   -6.5276   -0.9365    0.0000 C   0  0  0  0  0  0  0  0  0  0  0  0
   -7.9724   -1.3397    0.0000 C   0  0  0  0  0  0  0  0  0  0  0  0
   -8.3456   -2.7926    0.0000 O   0  0  0  0  0  0  0  0  0  0  0  0
   -7.2740   -3.8422    0.0000 C   0  0  0  0  0  0  0  0  0  0  0  0
   -5.8292   -3.4390    0.0000 C   0  0  0  0  0  0  0  0  0  0  0  0
   -0.3751    2.1290    0.0000 C   0  0  0  0  0  0  0  0  0  0  0  0
    0.6964    1.0794    0.0000 C   0  0  0  0  0  0  0  0  0  0  0  0
    2.1412    1.4826    0.0000 C   0  0  0  0  0  0  0  0  0  0  0  0
    5.3559   -1.6663    0.0000 C   0  0  0  0  0  0  0  0  0  0  0  0
  1  2  1  0
  2  3  1  0
  3  4  2  0
  4  5  1  0
  5  6  2  0
  6  7  1  0
  7  8  1  0
  8  9  1  0
  9 10  2  0
 10 11  1  0
 11 12  2  0
 12 13  1  0
 13 14  2  0
 14 15  1  0
 15 16  1  0
 16 17  1  0
 17 18  2  0
 17 19  1  0
 19 20  1  0
 20 21  1  0
 21 22  1  0
 22 23  1  0
 23 24  1  0
 24 25  1  0
 25 26  1  0
 26 27  1  0
 27 28  1  0
 19 29  1  0
 29 30  2  0
 30 31  1  0
  6 32  1  0
 32  2  2  0
 31  8  2  0
 31 12  1  0
 29 14  1  0
 28 23  1  0
M  END
>  <ChEMBL_ID>  (51) 
CHEMBL3774947

>  <SMILES>  (51) 
O=C1COc2cc3ncnc(Nc4cccc(Cl)c4)c3cc2N1CCCN1CCOCC1

>  <MPO_Hit_Score>  (51) 
0.55600000000000005

>  <Tanimoto_to_Gefitinib>  (51) 
0.46429999999999999

>  <MolecularWeight>  (51) 
453.93000000000001

>  <LogP>  (51) 
3.4700000000000002

>  <TPSA>  (51) 
79.819999999999993

$$$$
CHEMBL1688539
     RDKit          2D

 19 21  0  0  0  0  0  0  0  0999 V2000
   -5.9949    0.0683    0.0000 F   0  0  0  0  0  0  0  0  0  0  0  0
   -4.5202    0.3423    0.0000 C   0  0  0  0  0  0  0  0  0  0  0  0
   -4.0201    1.7565    0.0000 C   0  0  0  0  0  0  0  0  0  0  0  0
   -2.5453    2.0305    0.0000 C   0  0  0  0  0  0  0  0  0  0  0  0
   -1.5707    0.8904    0.0000 C   0  0  0  0  0  0  0  0  0  0  0  0
   -0.0959    1.1644    0.0000 N   0  0  0  0  0  0  0  0  0  0  0  0
    0.8788    0.0242    0.0000 C   0  0  0  0  0  0  0  0  0  0  0  0
    0.3787   -1.3900    0.0000 N   0  0  0  0  0  0  0  0  0  0  0  0
    1.3534   -2.5302    0.0000 C   0  0  0  0  0  0  0  0  0  0  0  0
    2.8282   -2.2561    0.0000 N   0  0  0  0  0  0  0  0  0  0  0  0
    3.3282   -0.8419    0.0000 C   0  0  0  0  0  0  0  0  0  0  0  0
    4.8030   -0.5679    0.0000 C   0  0  0  0  0  0  0  0  0  0  0  0
    5.3031    0.8463    0.0000 C   0  0  0  0  0  0  0  0  0  0  0  0
    4.3284    1.9864    0.0000 C   0  0  0  0  0  0  0  0  0  0  0  0
    2.8536    1.7124    0.0000 C   0  0  0  0  0  0  0  0  0  0  0  0
    2.3535    0.2982    0.0000 C   0  0  0  0  0  0  0  0  0  0  0  0
   -2.0707   -0.5238    0.0000 C   0  0  0  0  0  0  0  0  0  0  0  0
   -3.5455   -0.7979    0.0000 C   0  0  0  0  0  0  0  0  0  0  0  0
   -4.0456   -2.2120    0.0000 Cl  0  0  0  0  0  0  0  0  0  0  0  0
  1  2  1  0
  2  3  1  0
  3  4  2  0
  4  5  1  0
  5  6  1  0
  6  7  1  0
  7  8  2  0
  8  9  1  0
  9 10  2  0
 10 11  1  0
 11 12  2  0
 12 13  1  0
 13 14  2  0
 14 15  1  0
 15 16  2  0
  5 17  2  0
 17 18  1  0
 18 19  1  0
 18  2  2  0
 16  7  1  0
 16 11  1  0
M  END
>  <ChEMBL_ID>  (52) 
CHEMBL1688539

>  <SMILES>  (52) 
Fc1ccc(Nc2ncnc3ccccc23)cc1Cl

>  <MPO_Hit_Score>  (52) 
0.55330000000000001

>  <Tanimoto_to_Gefitinib>  (52) 
0.45450000000000002

>  <MolecularWeight>  (52) 
273.69999999999999

>  <LogP>  (52) 
4.1699999999999999

>  <TPSA>  (52) 
37.810000000000002

$$$$
CHEMBL1761929
     RDKit          2D

 26 28  0  0  0  0  0  0  0  0999 V2000
   -7.5196    2.5894    0.0000 C   0  0  0  0  0  0  0  0  0  0  0  0
   -6.4833    1.5050    0.0000 O   0  0  0  0  0  0  0  0  0  0  0  0
   -6.9042    0.0652    0.0000 C   0  0  0  0  0  0  0  0  0  0  0  0
   -8.3615   -0.2901    0.0000 O   0  0  0  0  0  0  0  0  0  0  0  0
   -5.8679   -1.0192    0.0000 N   0  0  0  0  0  0  0  0  0  0  0  0
   -4.4106   -0.6639    0.0000 C   0  0  0  0  0  0  0  0  0  0  0  0
   -3.9896    0.7758    0.0000 C   0  0  0  0  0  0  0  0  0  0  0  0
   -2.5323    1.1311    0.0000 C   0  0  0  0  0  0  0  0  0  0  0  0
   -1.4959    0.0467    0.0000 C   0  0  0  0  0  0  0  0  0  0  0  0
   -0.0386    0.4020    0.0000 N   0  0  0  0  0  0  0  0  0  0  0  0
    0.9977   -0.6824    0.0000 C   0  0  0  0  0  0  0  0  0  0  0  0
    0.5768   -2.1221    0.0000 N   0  0  0  0  0  0  0  0  0  0  0  0
    1.6131   -3.2066    0.0000 C   0  0  0  0  0  0  0  0  0  0  0  0
    3.0704   -2.8513    0.0000 N   0  0  0  0  0  0  0  0  0  0  0  0
    3.4914   -1.4116    0.0000 C   0  0  0  0  0  0  0  0  0  0  0  0
    4.9487   -1.0563    0.0000 C   0  0  0  0  0  0  0  0  0  0  0  0
    5.3697    0.3835    0.0000 C   0  0  0  0  0  0  0  0  0  0  0  0
    6.8270    0.7388    0.0000 O   0  0  0  0  0  0  0  0  0  0  0  0
    7.8633   -0.3457    0.0000 C   0  0  0  0  0  0  0  0  0  0  0  0
    4.3333    1.4679    0.0000 C   0  0  0  0  0  0  0  0  0  0  0  0
    4.7543    2.9076    0.0000 O   0  0  0  0  0  0  0  0  0  0  0  0
    3.7179    3.9920    0.0000 C   0  0  0  0  0  0  0  0  0  0  0  0
    2.8760    1.1126    0.0000 C   0  0  0  0  0  0  0  0  0  0  0  0
    2.4550   -0.3271    0.0000 C   0  0  0  0  0  0  0  0  0  0  0  0
   -1.9169   -1.3930    0.0000 C   0  0  0  0  0  0  0  0  0  0  0  0
   -3.3742   -1.7483    0.0000 C   0  0  0  0  0  0  0  0  0  0  0  0
  1  2  1  0
  2  3  1  0
  3  4  2  0
  3  5  1  0
  5  6  1  0
  6  7  1  0
  7  8  2  0
  8  9  1  0
  9 10  1  0
 10 11  1  0
 11 12  1  0
 12 13  2  0
 13 14  1  0
 14 15  2  0
 15 16  1  0
 16 17  2  0
 17 18  1  0
 18 19  1  0
 17 20  1  0
 20 21  1  0
 21 22  1  0
 20 23  2  0
 23 24  1  0
  9 25  2  0
 25 26  1  0
 26  6  2  0
 24 11  2  0
 24 15  1  0
M  END
>  <ChEMBL_ID>  (53) 
CHEMBL1761929

>  <SMILES>  (53) 
COC(=O)Nc1ccc(Nc2ncnc3cc(OC)c(OC)cc23)cc1

>  <MPO_Hit_Score>  (53) 
0.55179999999999996

>  <Tanimoto_to_Gefitinib>  (53) 
0.42859999999999998

>  <MolecularWeight>  (53) 
354.37

>  <LogP>  (53) 
3.5699999999999998

>  <TPSA>  (53) 
94.599999999999994

$$$$
CHEMBL555797
     RDKit          2D

 24 27  0  0  0  0  0  0  0  0999 V2000
   -6.7068    1.5223    0.0000 C   0  0  0  0  0  0  0  0  0  0  0  0
   -6.1569    0.1268    0.0000 O   0  0  0  0  0  0  0  0  0  0  0  0
   -4.6734   -0.0948    0.0000 C   0  0  0  0  0  0  0  0  0  0  0  0
   -4.1235   -1.4904    0.0000 C   0  0  0  0  0  0  0  0  0  0  0  0
   -2.6400   -1.7120    0.0000 C   0  0  0  0  0  0  0  0  0  0  0  0
   -2.0901   -3.1075    0.0000 N   0  0  0  0  0  0  0  0  0  0  0  0
   -0.6065   -3.3291    0.0000 C   0  0  0  0  0  0  0  0  0  0  0  0
    0.3271   -2.1551    0.0000 N   0  0  0  0  0  0  0  0  0  0  0  0
   -0.2228   -0.7595    0.0000 C   0  0  0  0  0  0  0  0  0  0  0  0
    0.7109    0.4145    0.0000 N   0  0  0  0  0  0  0  0  0  0  0  0
    2.1944    0.1929    0.0000 C   0  0  0  0  0  0  0  0  0  0  0  0
    2.7443   -1.2027    0.0000 C   0  0  0  0  0  0  0  0  0  0  0  0
    4.2279   -1.4243    0.0000 C   0  0  0  0  0  0  0  0  0  0  0  0
    5.1615   -0.2503    0.0000 C   0  0  0  0  0  0  0  0  0  0  0  0
    6.6587   -0.1586    0.0000 C   0  0  0  0  0  0  0  0  0  0  0  0
    7.0342    1.2937    0.0000 C   0  0  0  0  0  0  0  0  0  0  0  0
    5.7690    2.0995    0.0000 C   0  0  0  0  0  0  0  0  0  0  0  0
    4.6117    1.1453    0.0000 C   0  0  0  0  0  0  0  0  0  0  0  0
    3.1281    1.3669    0.0000 C   0  0  0  0  0  0  0  0  0  0  0  0
   -1.7063   -0.5380    0.0000 C   0  0  0  0  0  0  0  0  0  0  0  0
   -2.2562    0.8576    0.0000 C   0  0  0  0  0  0  0  0  0  0  0  0
   -3.7397    1.0792    0.0000 C   0  0  0  0  0  0  0  0  0  0  0  0
   -4.2896    2.4748    0.0000 O   0  0  0  0  0  0  0  0  0  0  0  0
   -3.3559    3.6488    0.0000 C   0  0  0  0  0  0  0  0  0  0  0  0
  1  2  1  0
  2  3  1  0
  3  4  2  0
  4  5  1  0
  5  6  2  0
  6  7  1  0
  7  8  2  0
  8  9  1  0
  9 10  1  0
 10 11  1  0
 11 12  1  0
 12 13  2  0
 13 14  1  0
 14 15  1  0
 15 16  1  0
 16 17  1  0
 17 18  1  0
 18 19  1  0
  9 20  2  0
 20 21  1  0
 21 22  2  0
 22 23  1  0
 23 24  1  0
 22  3  1  0
 20  5  1  0
 19 11  2  0
 18 14  2  0
M  END
>  <ChEMBL_ID>  (54) 
CHEMBL555797

>  <SMILES>  (54) 
COc1cc2ncnc(Nc3ccc4c(c3)CCC4)c2cc1OC

>  <MPO_Hit_Score>  (54) 
0.55159999999999998

>  <Tanimoto_to_Gefitinib>  (54) 
0.46379999999999999

>  <MolecularWeight>  (54) 
321.38

>  <LogP>  (54) 
3.8799999999999999

>  <TPSA>  (54) 
56.270000000000003

$$$$
CHEMBL420059
     RDKit          2D

 31 35  0  0  0  0  0  0  0  0999 V2000
   -4.2460   -4.3068    0.0000 C   0  0  0  0  0  0  0  0  0  0  0  0
   -2.8070   -4.7302    0.0000 O   0  0  0  0  0  0  0  0  0  0  0  0
   -1.7208   -3.6956    0.0000 C   0  0  0  0  0  0  0  0  0  0  0  0
   -0.2818   -4.1190    0.0000 C   0  0  0  0  0  0  0  0  0  0  0  0
    0.8043   -3.0844    0.0000 C   0  0  0  0  0  0  0  0  0  0  0  0
    2.2434   -3.5078    0.0000 N   0  0  0  0  0  0  0  0  0  0  0  0
    3.3295   -2.4732    0.0000 C   0  0  0  0  0  0  0  0  0  0  0  0
    2.9766   -1.0153    0.0000 N   0  0  0  0  0  0  0  0  0  0  0  0
    1.5376   -0.5920    0.0000 C   0  0  0  0  0  0  0  0  0  0  0  0
    1.1847    0.8659    0.0000 N   0  0  0  0  0  0  0  0  0  0  0  0
    2.2708    1.9005    0.0000 C   0  0  0  0  0  0  0  0  0  0  0  0
    2.6942    3.3395    0.0000 C   0  0  0  0  0  0  0  0  0  0  0  0
    3.7287    2.2534    0.0000 C   0  0  0  0  0  0  0  0  0  0  0  0
    5.1678    1.8300    0.0000 C   0  0  0  0  0  0  0  0  0  0  0  0
    5.5207    0.3721    0.0000 C   0  0  0  0  0  0  0  0  0  0  0  0
    6.9597   -0.0512    0.0000 C   0  0  0  0  0  0  0  0  0  0  0  0
    8.0458    0.9834    0.0000 C   0  0  0  0  0  0  0  0  0  0  0  0
    7.6929    2.4413    0.0000 C   0  0  0  0  0  0  0  0  0  0  0  0
    6.2539    2.8646    0.0000 C   0  0  0  0  0  0  0  0  0  0  0  0
    0.4515   -1.6265    0.0000 C   0  0  0  0  0  0  0  0  0  0  0  0
   -0.9876   -1.2032    0.0000 C   0  0  0  0  0  0  0  0  0  0  0  0
   -2.0737   -2.2377    0.0000 C   0  0  0  0  0  0  0  0  0  0  0  0
   -3.5127   -1.8144    0.0000 O   0  0  0  0  0  0  0  0  0  0  0  0
   -3.8656   -0.3565    0.0000 C   0  0  0  0  0  0  0  0  0  0  0  0
   -5.3046    0.0669    0.0000 C   0  0  0  0  0  0  0  0  0  0  0  0
   -5.6575    1.5248    0.0000 N   0  0  0  0  0  0  0  0  0  0  0  0
   -4.5714    2.5593    0.0000 C   0  0  0  0  0  0  0  0  0  0  0  0
   -4.9243    4.0172    0.0000 C   0  0  0  0  0  0  0  0  0  0  0  0
   -6.3633    4.4406    0.0000 O   0  0  0  0  0  0  0  0  0  0  0  0
   -7.4494    3.4060    0.0000 C   0  0  0  0  0  0  0  0  0  0  0  0
   -7.0965    1.9481    0.0000 C   0  0  0  0  0  0  0  0  0  0  0  0
  1  2  1  0
  2  3  1  0
  3  4  2  0
  4  5  1  0
  5  6  2  0
  6  7  1  0
  7  8  2  0
  8  9  1  0
  9 10  1  0
 10 11  1  0
 11 12  1  0
 12 13  1  0
 13 14  1  0
 14 15  2  0
 15 16  1  0
 16 17  2  0
 17 18  1  0
 18 19  2  0
  9 20  2  0
 20 21  1  0
 21 22  2  0
 22 23  1  0
 23 24  1  0
 24 25  1  0
 25 26  1  0
 26 27  1  0
 27 28  1  0
 28 29  1  0
 29 30  1  0
 30 31  1  0
 22  3  1  0
 20  5  1  0
 13 11  1  0
 19 14  1  0
 31 26  1  0
M  END
>  <ChEMBL_ID>  (55) 
CHEMBL420059

>  <SMILES>  (55) 
COc1cc2ncnc(NC3CC3c3ccccc3)c2cc1OCCN1CCOCC1

>  <MPO_Hit_Score>  (55) 
0.55030000000000001

>  <Tanimoto_to_Gefitinib>  (55) 
0.52559999999999996

>  <MolecularWeight>  (55) 
420.50999999999999

>  <LogP>  (55) 
3.3199999999999998

>  <TPSA>  (55) 
68.739999999999995

$$$$
CHEMBL207037
     RDKit          2D

 29 32  0  0  0  0  0  0  0  0999 V2000
   -5.7832   -1.5348    0.0000 C   0  0  0  0  0  0  0  0  0  0  0  0
   -4.8430   -2.7036    0.0000 O   0  0  0  0  0  0  0  0  0  0  0  0
   -3.3607   -2.4737    0.0000 C   0  0  0  0  0  0  0  0  0  0  0  0
   -2.4204   -3.6424    0.0000 C   0  0  0  0  0  0  0  0  0  0  0  0
   -0.9382   -3.4125    0.0000 C   0  0  0  0  0  0  0  0  0  0  0  0
    0.0021   -4.5812    0.0000 N   0  0  0  0  0  0  0  0  0  0  0  0
    1.4844   -4.3513    0.0000 C   0  0  0  0  0  0  0  0  0  0  0  0
    2.0264   -2.9527    0.0000 N   0  0  0  0  0  0  0  0  0  0  0  0
    1.0861   -1.7839    0.0000 C   0  0  0  0  0  0  0  0  0  0  0  0
    1.6282   -0.3853    0.0000 N   0  0  0  0  0  0  0  0  0  0  0  0
    3.1105   -0.1554    0.0000 C   0  0  0  0  0  0  0  0  0  0  0  0
    4.0507   -1.3241    0.0000 C   0  0  0  0  0  0  0  0  0  0  0  0
    5.5330   -1.0942    0.0000 C   0  0  0  0  0  0  0  0  0  0  0  0
    6.0750    0.3044    0.0000 C   0  0  0  0  0  0  0  0  0  0  0  0
    5.1348    1.4731    0.0000 C   0  0  0  0  0  0  0  0  0  0  0  0
    5.6768    2.8718    0.0000 Cl  0  0  0  0  0  0  0  0  0  0  0  0
    3.6525    1.2432    0.0000 C   0  0  0  0  0  0  0  0  0  0  0  0
    2.7122    2.4120    0.0000 F   0  0  0  0  0  0  0  0  0  0  0  0
   -0.3961   -2.0139    0.0000 C   0  0  0  0  0  0  0  0  0  0  0  0
   -1.3364   -0.8451    0.0000 C   0  0  0  0  0  0  0  0  0  0  0  0
   -2.8186   -1.0750    0.0000 C   0  0  0  0  0  0  0  0  0  0  0  0
   -3.7589    0.0937    0.0000 C   0  0  0  0  0  0  0  0  0  0  0  0
   -3.2169    1.4924    0.0000 N   0  0  0  0  0  0  0  0  0  0  0  0
   -1.8446    2.0981    0.0000 C   0  0  0  0  0  0  0  0  0  0  0  0
   -2.4503    3.4703    0.0000 C   0  0  0  0  0  0  0  0  0  0  0  0
   -3.8226    2.8646    0.0000 C   0  0  0  0  0  0  0  0  0  0  0  0
   -1.9083    4.8690    0.0000 C   0  0  0  0  0  0  0  0  0  0  0  0
   -2.8485    6.0377    0.0000 O   0  0  0  0  0  0  0  0  0  0  0  0
   -0.4260    5.0989    0.0000 N   0  0  0  0  0  0  0  0  0  0  0  0
  1  2  1  0
  2  3  1  0
  3  4  2  0
  4  5  1  0
  5  6  2  0
  6  7  1  0
  7  8  2  0
  8  9  1  0
  9 10  1  0
 10 11  1  0
 11 12  2  0
 12 13  1  0
 13 14  2  0
 14 15  1  0
 15 16  1  0
 15 17  2  0
 17 18  1  0
  9 19  2  0
 19 20  1  0
 20 21  2  0
 21 22  1  0
 22 23  1  0
 23 24  1  0
 24 25  1  0
 25 26  1  0
 25 27  1  0
 27 28  2  0
 27 29  1  0
 21  3  1  0
 19  5  1  0
 17 11  1  0
 26 23  1  0
M  END
>  <ChEMBL_ID>  (56) 
CHEMBL207037

>  <SMILES>  (56) 
COc1cc2ncnc(Nc3cccc(Cl)c3F)c2cc1CN1CC(C(N)=O)C1

>  <MPO_Hit_Score>  (56) 
0.55010000000000003

>  <Tanimoto_to_Gefitinib>  (56) 
0.40229999999999999

>  <MolecularWeight>  (56) 
415.86000000000001

>  <LogP>  (56) 
3.0899999999999999

>  <TPSA>  (56) 
93.370000000000005

$$$$
CHEMBL3092303
     RDKit          2D

 37 41  0  0  0  0  0  0  0  0999 V2000
  -10.1921   -4.3805    0.0000 O   0  0  0  0  0  0  0  0  0  0  0  0
   -9.0358   -3.4250    0.0000 C   0  0  0  0  0  0  0  0  0  0  0  0
   -7.6302   -3.9486    0.0000 C   0  0  0  0  0  0  0  0  0  0  0  0
   -6.4739   -2.9931    0.0000 N   0  0  0  0  0  0  0  0  0  0  0  0
   -6.7233   -1.5139    0.0000 C   0  0  0  0  0  0  0  0  0  0  0  0
   -5.5670   -0.5584    0.0000 C   0  0  0  0  0  0  0  0  0  0  0  0
   -4.1613   -1.0820    0.0000 N   0  0  0  0  0  0  0  0  0  0  0  0
   -3.9120   -2.5611    0.0000 C   0  0  0  0  0  0  0  0  0  0  0  0
   -5.0682   -3.5167    0.0000 C   0  0  0  0  0  0  0  0  0  0  0  0
   -3.0051   -0.1265    0.0000 C   0  0  0  0  0  0  0  0  0  0  0  0
   -3.2544    1.3526    0.0000 O   0  0  0  0  0  0  0  0  0  0  0  0
   -1.5994   -0.6501    0.0000 N   0  0  0  0  0  0  0  0  0  0  0  0
   -0.4431    0.3054    0.0000 C   0  0  0  0  0  0  0  0  0  0  0  0
    0.9625   -0.2182    0.0000 C   0  0  0  0  0  0  0  0  0  0  0  0
    2.1188    0.7374    0.0000 C   0  0  0  0  0  0  0  0  0  0  0  0
    3.5244    0.2138    0.0000 C   0  0  0  0  0  0  0  0  0  0  0  0
    3.7738   -1.2654    0.0000 N   0  0  0  0  0  0  0  0  0  0  0  0
    5.1794   -1.7890    0.0000 C   0  0  0  0  0  0  0  0  0  0  0  0
    5.4288   -3.2681    0.0000 C   0  0  0  0  0  0  0  0  0  0  0  0
    6.8345   -3.7917    0.0000 C   0  0  0  0  0  0  0  0  0  0  0  0
    7.9907   -2.8362    0.0000 C   0  0  0  0  0  0  0  0  0  0  0  0
    9.3964   -3.3598    0.0000 F   0  0  0  0  0  0  0  0  0  0  0  0
    7.7414   -1.3570    0.0000 C   0  0  0  0  0  0  0  0  0  0  0  0
    8.8976   -0.4015    0.0000 Cl  0  0  0  0  0  0  0  0  0  0  0  0
    6.3357   -0.8334    0.0000 C   0  0  0  0  0  0  0  0  0  0  0  0
    4.6807    1.1693    0.0000 N   0  0  0  0  0  0  0  0  0  0  0  0
    4.4313    2.6484    0.0000 C   0  0  0  0  0  0  0  0  0  0  0  0
    3.0257    3.1720    0.0000 N   0  0  0  0  0  0  0  0  0  0  0  0
    1.8694    2.2165    0.0000 C   0  0  0  0  0  0  0  0  0  0  0  0
    0.4638    2.7401    0.0000 C   0  0  0  0  0  0  0  0  0  0  0  0
   -0.6925    1.7846    0.0000 C   0  0  0  0  0  0  0  0  0  0  0  0
   -2.0982    2.3082    0.0000 O   0  0  0  0  0  0  0  0  0  0  0  0
   -2.3475    3.7873    0.0000 C   0  0  0  0  0  0  0  0  0  0  0  0
   -3.6908    4.4550    0.0000 C   0  0  0  0  0  0  0  0  0  0  0  0
   -3.4708    5.9388    0.0000 C   0  0  0  0  0  0  0  0  0  0  0  0
   -1.9917    6.1881    0.0000 O   0  0  0  0  0  0  0  0  0  0  0  0
   -1.2975    4.8585    0.0000 C   0  0  0  0  0  0  0  0  0  0  0  0
  1  2  1  0
  2  3  1  0
  3  4  1  0
  4  5  1  0
  5  6  1  0
  6  7  1  0
  7  8  1  0
  8  9  1  0
  7 10  1  0
 10 11  2  0
 10 12  1  0
 12 13  1  0
 13 14  2  0
 14 15  1  0
 15 16  2  0
 16 17  1  0
 17 18  1  0
 18 19  1  0
 19 20  2  0
 20 21  1  0
 21 22  1  0
 21 23  2  0
 23 24  1  0
 23 25  1  0
 16 26  1  0
 26 27  2  0
 27 28  1  0
 28 29  2  0
 29 30  1  0
 30 31  2  0
 31 32  1  0
 33 32  1  1
 33 34  1  0
 34 35  1  0
 35 36  1  0
 36 37  1  0
  9  4  1  0
 31 13  1  0
 29 15  1  0
 25 18  2  0
 37 33  1  0
M  END
>  <ChEMBL_ID>  (57) 
CHEMBL3092303

>  <SMILES>  (57) 
O=C(Nc1cc2c(Nc3ccc(F)c(Cl)c3)ncnc2cc1O[C@H]1CCOC1)N1CCN(CCO)CC1

>  <MPO_Hit_Score>  (57) 
0.54779999999999995

>  <Tanimoto_to_Gefitinib>  (57) 
0.5

>  <MolecularWeight>  (57) 
530.99000000000001

>  <LogP>  (57) 
3.48

>  <TPSA>  (57) 
112.08

$$$$
CHEMBL283088
     RDKit          2D

 31 34  0  0  0  0  0  0  0  0999 V2000
    1.9132    4.2315    0.0000 C   0  0  0  0  0  0  0  0  0  0  0  0
    0.4924    3.7504    0.0000 O   0  0  0  0  0  0  0  0  0  0  0  0
    0.1987    2.2794    0.0000 C   0  0  0  0  0  0  0  0  0  0  0  0
   -1.2220    1.7983    0.0000 C   0  0  0  0  0  0  0  0  0  0  0  0
   -1.5157    0.3273    0.0000 C   0  0  0  0  0  0  0  0  0  0  0  0
   -2.9365   -0.1538    0.0000 C   0  0  0  0  0  0  0  0  0  0  0  0
   -4.0635    0.8360    0.0000 N   0  0  0  0  0  0  0  0  0  0  0  0
   -5.4842    0.3549    0.0000 C   0  0  0  0  0  0  0  0  0  0  0  0
   -6.6113    1.3447    0.0000 C   0  0  0  0  0  0  0  0  0  0  0  0
   -8.0320    0.8636    0.0000 C   0  0  0  0  0  0  0  0  0  0  0  0
   -8.3257   -0.6074    0.0000 C   0  0  0  0  0  0  0  0  0  0  0  0
   -9.7465   -1.0885    0.0000 Cl  0  0  0  0  0  0  0  0  0  0  0  0
   -7.1987   -1.5972    0.0000 C   0  0  0  0  0  0  0  0  0  0  0  0
   -5.7779   -1.1161    0.0000 C   0  0  0  0  0  0  0  0  0  0  0  0
   -4.6509   -2.1059    0.0000 F   0  0  0  0  0  0  0  0  0  0  0  0
   -3.2302   -1.6248    0.0000 N   0  0  0  0  0  0  0  0  0  0  0  0
   -2.1031   -2.6146    0.0000 C   0  0  0  0  0  0  0  0  0  0  0  0
   -0.6824   -2.1335    0.0000 N   0  0  0  0  0  0  0  0  0  0  0  0
   -0.3887   -0.6625    0.0000 C   0  0  0  0  0  0  0  0  0  0  0  0
    1.0321   -0.1814    0.0000 C   0  0  0  0  0  0  0  0  0  0  0  0
    1.3258    1.2896    0.0000 C   0  0  0  0  0  0  0  0  0  0  0  0
    2.7465    1.7707    0.0000 O   0  0  0  0  0  0  0  0  0  0  0  0
    3.8736    0.7809    0.0000 C   0  0  0  0  0  0  0  0  0  0  0  0
    5.2943    1.2620    0.0000 C   0  0  0  0  0  0  0  0  0  0  0  0
    6.4213    0.2722    0.0000 N   0  0  0  0  0  0  0  0  0  0  0  0
    6.1276   -1.1988    0.0000 C   0  0  0  0  0  0  0  0  0  0  0  0
    7.2547   -2.1886    0.0000 C   0  0  0  0  0  0  0  0  0  0  0  0
    8.6754   -1.7075    0.0000 N   0  0  0  0  0  0  0  0  0  0  0  0
    9.8025   -2.6973    0.0000 C   0  0  0  0  0  0  0  0  0  0  0  0
    8.9691   -0.2365    0.0000 C   0  0  0  0  0  0  0  0  0  0  0  0
    7.8421    0.7533    0.0000 C   0  0  0  0  0  0  0  0  0  0  0  0
  1  2  1  0
  2  3  1  0
  3  4  2  0
  4  5  1  0
  5  6  2  0
  6  7  1  0
  7  8  1  0
  8  9  1  0
  9 10  2  0
 10 11  1  0
 11 12  1  0
 11 13  2  0
 13 14  1  0
 14 15  1  0
  6 16  1  0
 16 17  2  0
 17 18  1  0
 18 19  2  0
 19 20  1  0
 20 21  2  0
 21 22  1  0
 22 23  1  0
 23 24  1  0
 24 25  1  0
 25 26  1  0
 26 27  1  0
 27 28  1  0
 28 29  1  0
 28 30  1  0
 30 31  1  0
 21  3  1  0
 19  5  1  0
 14  8  2  0
 31 25  1  0
M  END
>  <ChEMBL_ID>  (58) 
CHEMBL283088

>  <SMILES>  (58) 
COc1cc2c(Nc3ccc(Cl)cc3F)ncnc2cc1OCCN1CCN(C)CC1

>  <MPO_Hit_Score>  (58) 
0.54710000000000003

>  <Tanimoto_to_Gefitinib>  (58) 
0.58109999999999995

>  <MolecularWeight>  (58) 
445.93000000000001

>  <LogP>  (58) 
3.7999999999999998

>  <TPSA>  (58) 
62.75

$$$$
CHEMBL57759
     RDKit          2D

 27 29  0  0  0  0  0  0  0  0999 V2000
   -5.8736   -1.3759    0.0000 C   0  0  0  0  0  0  0  0  0  0  0  0
   -4.8915   -2.5097    0.0000 O   0  0  0  0  0  0  0  0  0  0  0  0
   -3.4185   -2.2261    0.0000 C   0  0  0  0  0  0  0  0  0  0  0  0
   -2.4364   -3.3599    0.0000 C   0  0  0  0  0  0  0  0  0  0  0  0
   -0.9635   -3.0763    0.0000 C   0  0  0  0  0  0  0  0  0  0  0  0
    0.0186   -4.2101    0.0000 N   0  0  0  0  0  0  0  0  0  0  0  0
    1.4915   -3.9265    0.0000 C   0  0  0  0  0  0  0  0  0  0  0  0
    1.9824   -2.5091    0.0000 N   0  0  0  0  0  0  0  0  0  0  0  0
    1.0003   -1.3753    0.0000 C   0  0  0  0  0  0  0  0  0  0  0  0
    1.4912    0.0421    0.0000 N   0  0  0  0  0  0  0  0  0  0  0  0
    2.9641    0.3258    0.0000 C   0  0  0  0  0  0  0  0  0  0  0  0
    3.9462   -0.8080    0.0000 C   0  0  0  0  0  0  0  0  0  0  0  0
    5.4191   -0.5244    0.0000 C   0  0  0  0  0  0  0  0  0  0  0  0
    5.9100    0.8930    0.0000 C   0  0  0  0  0  0  0  0  0  0  0  0
    7.3829    1.1766    0.0000 F   0  0  0  0  0  0  0  0  0  0  0  0
    4.9279    2.0268    0.0000 C   0  0  0  0  0  0  0  0  0  0  0  0
    5.4187    3.4442    0.0000 Cl  0  0  0  0  0  0  0  0  0  0  0  0
    3.4550    1.7432    0.0000 C   0  0  0  0  0  0  0  0  0  0  0  0
   -0.4726   -1.6589    0.0000 C   0  0  0  0  0  0  0  0  0  0  0  0
   -1.4547   -0.5251    0.0000 C   0  0  0  0  0  0  0  0  0  0  0  0
   -2.9277   -0.8087    0.0000 C   0  0  0  0  0  0  0  0  0  0  0  0
   -3.9098    0.3251    0.0000 O   0  0  0  0  0  0  0  0  0  0  0  0
   -3.4189    1.7425    0.0000 C   0  0  0  0  0  0  0  0  0  0  0  0
   -4.4010    2.8763    0.0000 C   0  0  0  0  0  0  0  0  0  0  0  0
   -3.9101    4.2937    0.0000 N   0  0  0  0  0  0  0  0  0  0  0  0
   -4.8922    5.4275    0.0000 C   0  0  0  0  0  0  0  0  0  0  0  0
   -2.4372    4.5773    0.0000 C   0  0  0  0  0  0  0  0  0  0  0  0
  1  2  1  0
  2  3  1  0
  3  4  2  0
  4  5  1  0
  5  6  2  0
  6  7  1  0
  7  8  2  0
  8  9  1  0
  9 10  1  0
 10 11  1  0
 11 12  1  0
 12 13  2  0
 13 14  1  0
 14 15  1  0
 14 16  2  0
 16 17  1  0
 16 18  1  0
  9 19  2  0
 19 20  1  0
 20 21  2  0
 21 22  1  0
 22 23  1  0
 23 24  1  0
 24 25  1  0
 25 26  1  0
 25 27  1  0
 21  3  1  0
 19  5  1  0
 18 11  2  0
M  END
>  <ChEMBL_ID>  (59) 
CHEMBL57759

>  <SMILES>  (59) 
COc1cc2ncnc(Nc3ccc(F)c(Cl)c3)c2cc1OCCN(C)C

>  <MPO_Hit_Score>  (59) 
0.54579999999999995

>  <Tanimoto_to_Gefitinib>  (59) 
0.67159999999999997

>  <MolecularWeight>  (59) 
390.85000000000002

>  <LogP>  (59) 
4.1100000000000003

>  <TPSA>  (59) 
59.509999999999998

$$$$
CHEMBL7917
     RDKit          2D

 22 24  0  0  0  0  0  0  0  0999 V2000
   -6.1245    1.3539    0.0000 C   0  0  0  0  0  0  0  0  0  0  0  0
   -5.5269   -0.0219    0.0000 O   0  0  0  0  0  0  0  0  0  0  0  0
   -4.0366   -0.1923    0.0000 C   0  0  0  0  0  0  0  0  0  0  0  0
   -3.4390   -1.5681    0.0000 C   0  0  0  0  0  0  0  0  0  0  0  0
   -1.9487   -1.7385    0.0000 C   0  0  0  0  0  0  0  0  0  0  0  0
   -1.3511   -3.1143    0.0000 N   0  0  0  0  0  0  0  0  0  0  0  0
    0.1392   -3.2847    0.0000 C   0  0  0  0  0  0  0  0  0  0  0  0
    1.0319   -2.0792    0.0000 N   0  0  0  0  0  0  0  0  0  0  0  0
    0.4343   -0.7034    0.0000 C   0  0  0  0  0  0  0  0  0  0  0  0
    1.3270    0.5021    0.0000 N   0  0  0  0  0  0  0  0  0  0  0  0
    2.8173    0.3317    0.0000 C   0  0  0  0  0  0  0  0  0  0  0  0
    3.4149   -1.0441    0.0000 C   0  0  0  0  0  0  0  0  0  0  0  0
    4.9052   -1.2145    0.0000 C   0  0  0  0  0  0  0  0  0  0  0  0
    5.7979   -0.0090    0.0000 C   0  0  0  0  0  0  0  0  0  0  0  0
    5.2002    1.3668    0.0000 C   0  0  0  0  0  0  0  0  0  0  0  0
    6.0929    2.5722    0.0000 Cl  0  0  0  0  0  0  0  0  0  0  0  0
    3.7099    1.5371    0.0000 C   0  0  0  0  0  0  0  0  0  0  0  0
   -1.0560   -0.5330    0.0000 C   0  0  0  0  0  0  0  0  0  0  0  0
   -1.6536    0.8428    0.0000 C   0  0  0  0  0  0  0  0  0  0  0  0
   -3.1439    1.0131    0.0000 C   0  0  0  0  0  0  0  0  0  0  0  0
   -3.7415    2.3890    0.0000 O   0  0  0  0  0  0  0  0  0  0  0  0
   -2.8488    3.5944    0.0000 C   0  0  0  0  0  0  0  0  0  0  0  0
  1  2  1  0
  2  3  1  0
  3  4  2  0
  4  5  1  0
  5  6  2  0
  6  7  1  0
  7  8  2  0
  8  9  1  0
  9 10  1  0
 10 11  1  0
 11 12  2  0
 12 13  1  0
 13 14  2  0
 14 15  1  0
 15 16  1  0
 15 17  2  0
  9 18  2  0
 18 19  1  0
 19 20  2  0
 20 21  1  0
 21 22  1  0
 20  3  1  0
 18  5  1  0
 17 11  1  0
M  END
>  <ChEMBL_ID>  (60) 
CHEMBL7917

>  <SMILES>  (60) 
COc1cc2ncnc(Nc3cccc(Cl)c3)c2cc1OC

>  <MPO_Hit_Score>  (60) 
0.54559999999999997

>  <Tanimoto_to_Gefitinib>  (60) 
0.5

>  <MolecularWeight>  (60) 
315.75999999999999

>  <LogP>  (60) 
4.04

>  <TPSA>  (60) 
56.270000000000003

$$$$
CHEMBL540068
     RDKit          2D

 22 24  0  0  0  0  0  0  0  0999 V2000
   -6.1245    1.3539    0.0000 C   0  0  0  0  0  0  0  0  0  0  0  0
   -5.5269   -0.0219    0.0000 O   0  0  0  0  0  0  0  0  0  0  0  0
   -4.0366   -0.1923    0.0000 C   0  0  0  0  0  0  0  0  0  0  0  0
   -3.4390   -1.5681    0.0000 C   0  0  0  0  0  0  0  0  0  0  0  0
   -1.9487   -1.7385    0.0000 C   0  0  0  0  0  0  0  0  0  0  0  0
   -1.3511   -3.1143    0.0000 N   0  0  0  0  0  0  0  0  0  0  0  0
    0.1392   -3.2847    0.0000 C   0  0  0  0  0  0  0  0  0  0  0  0
    1.0319   -2.0792    0.0000 N   0  0  0  0  0  0  0  0  0  0  0  0
    0.4343   -0.7034    0.0000 C   0  0  0  0  0  0  0  0  0  0  0  0
    1.3270    0.5021    0.0000 N   0  0  0  0  0  0  0  0  0  0  0  0
    2.8173    0.3317    0.0000 C   0  0  0  0  0  0  0  0  0  0  0  0
    3.4149   -1.0441    0.0000 C   0  0  0  0  0  0  0  0  0  0  0  0
    4.9052   -1.2145    0.0000 C   0  0  0  0  0  0  0  0  0  0  0  0
    5.7979   -0.0090    0.0000 C   0  0  0  0  0  0  0  0  0  0  0  0
    5.2002    1.3668    0.0000 C   0  0  0  0  0  0  0  0  0  0  0  0
    6.0929    2.5722    0.0000 Cl  0  0  0  0  0  0  0  0  0  0  0  0
    3.7099    1.5371    0.0000 C   0  0  0  0  0  0  0  0  0  0  0  0
   -1.0560   -0.5330    0.0000 C   0  0  0  0  0  0  0  0  0  0  0  0
   -1.6536    0.8428    0.0000 C   0  0  0  0  0  0  0  0  0  0  0  0
   -3.1439    1.0131    0.0000 C   0  0  0  0  0  0  0  0  0  0  0  0
   -3.7415    2.3890    0.0000 O   0  0  0  0  0  0  0  0  0  0  0  0
   -2.8488    3.5944    0.0000 C   0  0  0  0  0  0  0  0  0  0  0  0
  1  2  1  0
  2  3  1  0
  3  4  2  0
  4  5  1  0
  5  6  2  0
  6  7  1  0
  7  8  2  0
  8  9  1  0
  9 10  1  0
 10 11  1  0
 11 12  2  0
 12 13  1  0
 13 14  2  0
 14 15  1  0
 15 16  1  0
 15 17  2  0
  9 18  2  0
 18 19  1  0
 19 20  2  0
 20 21  1  0
 21 22  1  0
 20  3  1  0
 18  5  1  0
 17 11  1  0
M  END
>  <ChEMBL_ID>  (61) 
CHEMBL540068

>  <SMILES>  (61) 
COc1cc2ncnc(Nc3cccc(Cl)c3)c2cc1OC

>  <MPO_Hit_Score>  (61) 
0.54559999999999997

>  <Tanimoto_to_Gefitinib>  (61) 
0.5

>  <MolecularWeight>  (61) 
315.75999999999999

>  <LogP>  (61) 
4.04

>  <TPSA>  (61) 
56.270000000000003

$$$$
CHEMBL461968
     RDKit          2D

 29 31  0  0  0  0  0  0  0  0999 V2000
   -6.3077   -2.4257    0.0000 C   0  0  0  0  0  0  0  0  0  0  0  0
   -5.4949   -1.1651    0.0000 O   0  0  0  0  0  0  0  0  0  0  0  0
   -3.9967   -1.2387    0.0000 C   0  0  0  0  0  0  0  0  0  0  0  0
   -3.3113   -2.5730    0.0000 C   0  0  0  0  0  0  0  0  0  0  0  0
   -1.8131   -2.6466    0.0000 C   0  0  0  0  0  0  0  0  0  0  0  0
   -1.1278   -3.9809    0.0000 N   0  0  0  0  0  0  0  0  0  0  0  0
    0.3704   -4.0546    0.0000 C   0  0  0  0  0  0  0  0  0  0  0  0
    1.1832   -2.7939    0.0000 N   0  0  0  0  0  0  0  0  0  0  0  0
    0.4979   -1.4596    0.0000 C   0  0  0  0  0  0  0  0  0  0  0  0
    1.3108   -0.1990    0.0000 N   0  0  0  0  0  0  0  0  0  0  0  0
    2.8090   -0.2726    0.0000 C   0  0  0  0  0  0  0  0  0  0  0  0
    3.4943   -1.6069    0.0000 C   0  0  0  0  0  0  0  0  0  0  0  0
    4.9925   -1.6805    0.0000 C   0  0  0  0  0  0  0  0  0  0  0  0
    5.8054   -0.4199    0.0000 C   0  0  0  0  0  0  0  0  0  0  0  0
    7.3035   -0.4935    0.0000 F   0  0  0  0  0  0  0  0  0  0  0  0
    5.1200    0.9144    0.0000 C   0  0  0  0  0  0  0  0  0  0  0  0
    5.9329    2.1751    0.0000 Cl  0  0  0  0  0  0  0  0  0  0  0  0
    3.6218    0.9880    0.0000 C   0  0  0  0  0  0  0  0  0  0  0  0
   -1.0003   -1.3860    0.0000 C   0  0  0  0  0  0  0  0  0  0  0  0
   -1.6856   -0.0517    0.0000 C   0  0  0  0  0  0  0  0  0  0  0  0
   -3.1838    0.0219    0.0000 C   0  0  0  0  0  0  0  0  0  0  0  0
   -3.8691    1.3562    0.0000 C   0  0  0  0  0  0  0  0  0  0  0  0
   -3.0563    2.6169    0.0000 N   0  0  0  0  0  0  0  0  0  0  0  0
   -3.7416    3.9512    0.0000 C   0  0  0  0  0  0  0  0  0  0  0  0
   -1.5581    2.5432    0.0000 C   0  0  0  0  0  0  0  0  0  0  0  0
   -0.8727    1.2090    0.0000 C   0  0  0  0  0  0  0  0  0  0  0  0
   -0.7452    3.8039    0.0000 C   0  0  0  0  0  0  0  0  0  0  0  0
   -1.4305    5.1382    0.0000 O   0  0  0  0  0  0  0  0  0  0  0  0
    0.7530    3.7303    0.0000 N   0  0  0  0  0  0  0  0  0  0  0  0
  1  2  1  0
  2  3  1  0
  3  4  2  0
  4  5  1  0
  5  6  2  0
  6  7  1  0
  7  8  2  0
  8  9  1  0
  9 10  1  0
 10 11  1  0
 11 12  1  0
 12 13  2  0
 13 14  1  0
 14 15  1  0
 14 16  2  0
 16 17  1  0
 16 18  1  0
  9 19  2  0
 19 20  1  0
 20 21  2  0
 21 22  1  0
 22 23  1  0
 23 24  1  0
 23 25  1  0
 25 26  1  6
 25 27  1  0
 27 28  2  0
 27 29  1  0
 21  3  1  0
 19  5  1  0
 18 11  2  0
M  END
>  <ChEMBL_ID>  (62) 
CHEMBL461968

>  <SMILES>  (62) 
COc1cc2ncnc(Nc3ccc(F)c(Cl)c3)c2cc1CN(C)[C@@H](C)C(N)=O

>  <MPO_Hit_Score>  (62) 
0.54469999999999996

>  <Tanimoto_to_Gefitinib>  (62) 
0.49380000000000002

>  <MolecularWeight>  (62) 
417.87

>  <LogP>  (62) 
3.48

>  <TPSA>  (62) 
93.370000000000005

$$$$
CHEMBL517130
     RDKit          2D

 29 31  0  0  0  0  0  0  0  0999 V2000
   -6.3077   -2.4257    0.0000 C   0  0  0  0  0  0  0  0  0  0  0  0
   -5.4949   -1.1651    0.0000 O   0  0  0  0  0  0  0  0  0  0  0  0
   -3.9967   -1.2387    0.0000 C   0  0  0  0  0  0  0  0  0  0  0  0
   -3.3113   -2.5730    0.0000 C   0  0  0  0  0  0  0  0  0  0  0  0
   -1.8131   -2.6466    0.0000 C   0  0  0  0  0  0  0  0  0  0  0  0
   -1.1278   -3.9809    0.0000 N   0  0  0  0  0  0  0  0  0  0  0  0
    0.3704   -4.0546    0.0000 C   0  0  0  0  0  0  0  0  0  0  0  0
    1.1832   -2.7939    0.0000 N   0  0  0  0  0  0  0  0  0  0  0  0
    0.4979   -1.4596    0.0000 C   0  0  0  0  0  0  0  0  0  0  0  0
    1.3108   -0.1990    0.0000 N   0  0  0  0  0  0  0  0  0  0  0  0
    2.8090   -0.2726    0.0000 C   0  0  0  0  0  0  0  0  0  0  0  0
    3.4943   -1.6069    0.0000 C   0  0  0  0  0  0  0  0  0  0  0  0
    4.9925   -1.6805    0.0000 C   0  0  0  0  0  0  0  0  0  0  0  0
    5.8054   -0.4199    0.0000 C   0  0  0  0  0  0  0  0  0  0  0  0
    7.3035   -0.4935    0.0000 F   0  0  0  0  0  0  0  0  0  0  0  0
    5.1200    0.9144    0.0000 C   0  0  0  0  0  0  0  0  0  0  0  0
    5.9329    2.1751    0.0000 Cl  0  0  0  0  0  0  0  0  0  0  0  0
    3.6218    0.9880    0.0000 C   0  0  0  0  0  0  0  0  0  0  0  0
   -1.0003   -1.3860    0.0000 C   0  0  0  0  0  0  0  0  0  0  0  0
   -1.6856   -0.0517    0.0000 C   0  0  0  0  0  0  0  0  0  0  0  0
   -3.1838    0.0219    0.0000 C   0  0  0  0  0  0  0  0  0  0  0  0
   -3.8691    1.3562    0.0000 C   0  0  0  0  0  0  0  0  0  0  0  0
   -3.0563    2.6169    0.0000 N   0  0  0  0  0  0  0  0  0  0  0  0
   -3.7416    3.9512    0.0000 C   0  0  0  0  0  0  0  0  0  0  0  0
   -1.5581    2.5432    0.0000 C   0  0  0  0  0  0  0  0  0  0  0  0
   -0.8727    1.2090    0.0000 C   0  0  0  0  0  0  0  0  0  0  0  0
   -0.7452    3.8039    0.0000 C   0  0  0  0  0  0  0  0  0  0  0  0
   -1.4305    5.1382    0.0000 O   0  0  0  0  0  0  0  0  0  0  0  0
    0.7530    3.7303    0.0000 N   0  0  0  0  0  0  0  0  0  0  0  0
  1  2  1  0
  2  3  1  0
  3  4  2  0
  4  5  1  0
  5  6  2  0
  6  7  1  0
  7  8  2  0
  8  9  1  0
  9 10  1  0
 10 11  1  0
 11 12  1  0
 12 13  2  0
 13 14  1  0
 14 15  1  0
 14 16  2  0
 16 17  1  0
 16 18  1  0
  9 19  2  0
 19 20  1  0
 20 21  2  0
 21 22  1  0
 22 23  1  0
 23 24  1  0
 23 25  1  0
 25 26  1  1
 25 27  1  0
 27 28  2  0
 27 29  1  0
 21  3  1  0
 19  5  1  0
 18 11  2  0
M  END
>  <ChEMBL_ID>  (63) 
CHEMBL517130

>  <SMILES>  (63) 
COc1cc2ncnc(Nc3ccc(F)c(Cl)c3)c2cc1CN(C)[C@H](C)C(N)=O

>  <MPO_Hit_Score>  (63) 
0.54469999999999996

>  <Tanimoto_to_Gefitinib>  (63) 
0.49380000000000002

>  <MolecularWeight>  (63) 
417.87

>  <LogP>  (63) 
3.48

>  <TPSA>  (63) 
93.370000000000005

$$$$
CHEMBL543661
     RDKit          2D

 25 27  0  0  0  0  0  0  0  0999 V2000
   -4.8835    3.9928    0.0000 C   0  0  0  0  0  0  0  0  0  0  0  0
   -5.4483    2.6032    0.0000 O   0  0  0  0  0  0  0  0  0  0  0  0
   -4.5273    1.4192    0.0000 C   0  0  0  0  0  0  0  0  0  0  0  0
   -3.0415    1.6249    0.0000 C   0  0  0  0  0  0  0  0  0  0  0  0
   -2.1205    0.4409    0.0000 C   0  0  0  0  0  0  0  0  0  0  0  0
   -0.6346    0.6466    0.0000 N   0  0  0  0  0  0  0  0  0  0  0  0
    0.2864   -0.5374    0.0000 C   0  0  0  0  0  0  0  0  0  0  0  0
   -0.2784   -1.9270    0.0000 N   0  0  0  0  0  0  0  0  0  0  0  0
    0.6426   -3.1109    0.0000 C   0  0  0  0  0  0  0  0  0  0  0  0
    2.1284   -2.9053    0.0000 N   0  0  0  0  0  0  0  0  0  0  0  0
    2.6932   -1.5157    0.0000 C   0  0  0  0  0  0  0  0  0  0  0  0
    4.1791   -1.3101    0.0000 C   0  0  0  0  0  0  0  0  0  0  0  0
    4.7439    0.0795    0.0000 C   0  0  0  0  0  0  0  0  0  0  0  0
    6.2297    0.2852    0.0000 O   0  0  0  0  0  0  0  0  0  0  0  0
    7.1507   -0.8988    0.0000 C   0  0  0  0  0  0  0  0  0  0  0  0
    3.8229    1.2635    0.0000 C   0  0  0  0  0  0  0  0  0  0  0  0
    4.3877    2.6531    0.0000 O   0  0  0  0  0  0  0  0  0  0  0  0
    3.4667    3.8370    0.0000 C   0  0  0  0  0  0  0  0  0  0  0  0
    2.3370    1.0578    0.0000 C   0  0  0  0  0  0  0  0  0  0  0  0
    1.7722   -0.3317    0.0000 C   0  0  0  0  0  0  0  0  0  0  0  0
   -2.6853   -0.9487    0.0000 C   0  0  0  0  0  0  0  0  0  0  0  0
   -4.1711   -1.1543    0.0000 C   0  0  0  0  0  0  0  0  0  0  0  0
   -4.7360   -2.5439    0.0000 O   0  0  0  0  0  0  0  0  0  0  0  0
   -6.2218   -2.7496    0.0000 C   0  0  0  0  0  0  0  0  0  0  0  0
   -5.0921    0.0296    0.0000 C   0  0  0  0  0  0  0  0  0  0  0  0
  1  2  1  0
  2  3  1  0
  3  4  1  0
  4  5  2  0
  5  6  1  0
  6  7  1  0
  7  8  1  0
  8  9  2  0
  9 10  1  0
 10 11  2  0
 11 12  1  0
 12 13  2  0
 13 14  1  0
 14 15  1  0
 13 16  1  0
 16 17  1  0
 17 18  1  0
 16 19  2  0
 19 20  1  0
  5 21  1  0
 21 22  2  0
 22 23  1  0
 23 24  1  0
 22 25  1  0
 25  3  2  0
 20  7  2  0
 20 11  1  0
M  END
>  <ChEMBL_ID>  (64) 
CHEMBL543661

>  <SMILES>  (64) 
COc1cc(Nc2ncnc3cc(OC)c(OC)cc23)cc(OC)c1

>  <MPO_Hit_Score>  (64) 
0.54190000000000005

>  <Tanimoto_to_Gefitinib>  (64) 
0.42420000000000002

>  <MolecularWeight>  (64) 
341.37

>  <LogP>  (64) 
3.4100000000000001

>  <TPSA>  (64) 
74.730000000000004

$$$$
CHEMBL3774578
     RDKit          2D

 33 37  0  0  0  0  0  0  0  0999 V2000
    7.2773   -4.5160    0.0000 C   0  0  0  0  0  0  0  0  0  0  0  0
    6.1284   -3.5516    0.0000 C   0  0  0  0  0  0  0  0  0  0  0  0
    4.7188   -4.0643    0.0000 C   0  0  0  0  0  0  0  0  0  0  0  0
    3.5699   -3.0998    0.0000 C   0  0  0  0  0  0  0  0  0  0  0  0
    3.8308   -1.6227    0.0000 C   0  0  0  0  0  0  0  0  0  0  0  0
    2.6819   -0.6582    0.0000 N   0  0  0  0  0  0  0  0  0  0  0  0
    2.9428    0.8190    0.0000 C   0  0  0  0  0  0  0  0  0  0  0  0
    4.3524    1.3316    0.0000 N   0  0  0  0  0  0  0  0  0  0  0  0
    4.6133    2.8088    0.0000 C   0  0  0  0  0  0  0  0  0  0  0  0
    3.4644    3.7733    0.0000 N   0  0  0  0  0  0  0  0  0  0  0  0
    2.0548    3.2606    0.0000 C   0  0  0  0  0  0  0  0  0  0  0  0
    0.9059    4.2250    0.0000 C   0  0  0  0  0  0  0  0  0  0  0  0
   -0.5037    3.7123    0.0000 C   0  0  0  0  0  0  0  0  0  0  0  0
   -1.6526    4.6768    0.0000 O   0  0  0  0  0  0  0  0  0  0  0  0
   -3.0622    4.1641    0.0000 C   0  0  0  0  0  0  0  0  0  0  0  0
   -3.3231    2.6869    0.0000 C   0  0  0  0  0  0  0  0  0  0  0  0
   -4.7327    2.1743    0.0000 O   0  0  0  0  0  0  0  0  0  0  0  0
   -2.1742    1.7225    0.0000 N   0  0  0  0  0  0  0  0  0  0  0  0
   -2.4351    0.2453    0.0000 C   0  0  0  0  0  0  0  0  0  0  0  0
   -3.8447   -0.2674    0.0000 C   0  0  0  0  0  0  0  0  0  0  0  0
   -4.1055   -1.7445    0.0000 C   0  0  0  0  0  0  0  0  0  0  0  0
   -5.5152   -2.2572    0.0000 N   0  0  0  0  0  0  0  0  0  0  0  0
   -6.6640   -1.2927    0.0000 C   0  0  0  0  0  0  0  0  0  0  0  0
   -8.0737   -1.8054    0.0000 C   0  0  0  0  0  0  0  0  0  0  0  0
   -8.3345   -3.2826    0.0000 O   0  0  0  0  0  0  0  0  0  0  0  0
   -7.1857   -4.2470    0.0000 C   0  0  0  0  0  0  0  0  0  0  0  0
   -5.7760   -3.7343    0.0000 C   0  0  0  0  0  0  0  0  0  0  0  0
   -0.7646    2.2352    0.0000 C   0  0  0  0  0  0  0  0  0  0  0  0
    0.3843    1.2707    0.0000 C   0  0  0  0  0  0  0  0  0  0  0  0
    1.7939    1.7834    0.0000 C   0  0  0  0  0  0  0  0  0  0  0  0
    5.2404   -1.1100    0.0000 C   0  0  0  0  0  0  0  0  0  0  0  0
    6.3893   -2.0744    0.0000 C   0  0  0  0  0  0  0  0  0  0  0  0
    7.7989   -1.5617    0.0000 Cl  0  0  0  0  0  0  0  0  0  0  0  0
  1  2  1  0
  2  3  1  0
  3  4  2  0
  4  5  1  0
  5  6  1  0
  6  7  1  0
  7  8  1  0
  8  9  2  0
  9 10  1  0
 10 11  2  0
 11 12  1  0
 12 13  2  0
 13 14  1  0
 14 15  1  0
 15 16  1  0
 16 17  2  0
 16 18  1  0
 18 19  1  0
 19 20  1  0
 20 21  1  0
 21 22  1  0
 22 23  1  0
 23 24  1  0
 24 25  1  0
 25 26  1  0
 26 27  1  0
 18 28  1  0
 28 29  2  0
 29 30  1  0
  5 31  2  0
 31 32  1  0
 32 33  1  0
 32  2  2  0
 30  7  2  0
 30 11  1  0
 28 13  1  0
 27 22  1  0
M  END
>  <ChEMBL_ID>  (65) 
CHEMBL3774578

>  <SMILES>  (65) 
Cc1ccc(Nc2ncnc3cc4c(cc23)N(CCCN2CCOCC2)C(=O)CO4)cc1Cl

>  <MPO_Hit_Score>  (65) 
0.54049999999999998

>  <Tanimoto_to_Gefitinib>  (65) 
0.51219999999999999

>  <MolecularWeight>  (65) 
467.95999999999998

>  <LogP>  (65) 
3.7799999999999998

>  <TPSA>  (65) 
79.819999999999993

$$$$
CHEMBL3612572
     RDKit          2D

 29 32  0  0  0  0  0  0  0  0999 V2000
   -1.0517    4.8777    0.0000 C   0  0  0  0  0  0  0  0  0  0  0  0
   -2.4760    4.4073    0.0000 O   0  0  0  0  0  0  0  0  0  0  0  0
   -2.7809    2.9386    0.0000 C   0  0  0  0  0  0  0  0  0  0  0  0
   -4.2052    2.4683    0.0000 C   0  0  0  0  0  0  0  0  0  0  0  0
   -4.5101    0.9996    0.0000 N   0  0  0  0  0  0  0  0  0  0  0  0
   -5.8775    0.3830    0.0000 C   0  0  0  0  0  0  0  0  0  0  0  0
   -7.1801    1.1267    0.0000 O   0  0  0  0  0  0  0  0  0  0  0  0
   -5.7135   -1.1081    0.0000 O   0  0  0  0  0  0  0  0  0  0  0  0
   -4.2448   -1.4129    0.0000 C   0  0  0  0  0  0  0  0  0  0  0  0
   -3.4886   -2.7083    0.0000 C   0  0  0  0  0  0  0  0  0  0  0  0
   -1.9887   -2.7012    0.0000 C   0  0  0  0  0  0  0  0  0  0  0  0
   -1.2325   -3.9966    0.0000 N   0  0  0  0  0  0  0  0  0  0  0  0
    0.2675   -3.9895    0.0000 C   0  0  0  0  0  0  0  0  0  0  0  0
    1.0113   -2.6868    0.0000 N   0  0  0  0  0  0  0  0  0  0  0  0
    0.2551   -1.3914    0.0000 C   0  0  0  0  0  0  0  0  0  0  0  0
    0.9989   -0.0888    0.0000 N   0  0  0  0  0  0  0  0  0  0  0  0
    2.4989   -0.0816    0.0000 C   0  0  0  0  0  0  0  0  0  0  0  0
    3.2551   -1.3771    0.0000 C   0  0  0  0  0  0  0  0  0  0  0  0
    4.7551   -1.3699    0.0000 C   0  0  0  0  0  0  0  0  0  0  0  0
    5.4988   -0.0673    0.0000 C   0  0  0  0  0  0  0  0  0  0  0  0
    6.9988   -0.0601    0.0000 O   0  0  0  0  0  0  0  0  0  0  0  0
    7.7550   -1.3556    0.0000 C   0  0  0  0  0  0  0  0  0  0  0  0
    4.7426    1.2281    0.0000 C   0  0  0  0  0  0  0  0  0  0  0  0
    5.4864    2.5307    0.0000 O   0  0  0  0  0  0  0  0  0  0  0  0
    4.7302    3.8262    0.0000 C   0  0  0  0  0  0  0  0  0  0  0  0
    3.2427    1.2210    0.0000 C   0  0  0  0  0  0  0  0  0  0  0  0
   -1.2449   -1.3986    0.0000 C   0  0  0  0  0  0  0  0  0  0  0  0
   -2.0011   -0.1031    0.0000 C   0  0  0  0  0  0  0  0  0  0  0  0
   -3.5011   -0.1103    0.0000 C   0  0  0  0  0  0  0  0  0  0  0  0
  1  2  1  0
  2  3  1  0
  3  4  1  0
  4  5  1  0
  5  6  1  0
  6  7  2  0
  6  8  1  0
  8  9  1  0
  9 10  2  0
 10 11  1  0
 11 12  2  0
 12 13  1  0
 13 14  2  0
 14 15  1  0
 15 16  1  0
 16 17  1  0
 17 18  1  0
 18 19  2  0
 19 20  1  0
 20 21  1  0
 21 22  1  0
 20 23  2  0
 23 24  1  0
 24 25  1  0
 23 26  1  0
 15 27  2  0
 27 28  1  0
 28 29  2  0
 29  5  1  0
 29  9  1  0
 27 11  1  0
 26 17  2  0
M  END
>  <ChEMBL_ID>  (66) 
CHEMBL3612572

>  <SMILES>  (66) 
COCCn1c(=O)oc2cc3ncnc(Nc4ccc(OC)c(OC)c4)c3cc21

>  <MPO_Hit_Score>  (66) 
0.53449999999999998

>  <Tanimoto_to_Gefitinib>  (66) 
0.41980000000000001

>  <MolecularWeight>  (66) 
396.39999999999998

>  <LogP>  (66) 
2.9399999999999999

>  <TPSA>  (66) 
100.64

$$$$
CHEMBL57758
     RDKit          2D

 29 32  0  0  0  0  0  0  0  0999 V2000
   -5.0846   -3.0861    0.0000 C   0  0  0  0  0  0  0  0  0  0  0  0
   -3.8676   -3.9630    0.0000 O   0  0  0  0  0  0  0  0  0  0  0  0
   -2.4997   -3.3475    0.0000 C   0  0  0  0  0  0  0  0  0  0  0  0
   -1.2827   -4.2244    0.0000 C   0  0  0  0  0  0  0  0  0  0  0  0
    0.0852   -3.6090    0.0000 C   0  0  0  0  0  0  0  0  0  0  0  0
    1.3022   -4.4859    0.0000 N   0  0  0  0  0  0  0  0  0  0  0  0
    2.6701   -3.8704    0.0000 C   0  0  0  0  0  0  0  0  0  0  0  0
    2.8210   -2.3780    0.0000 N   0  0  0  0  0  0  0  0  0  0  0  0
    1.6041   -1.5011    0.0000 C   0  0  0  0  0  0  0  0  0  0  0  0
    1.7550   -0.0087    0.0000 N   0  0  0  0  0  0  0  0  0  0  0  0
    3.1229    0.6068    0.0000 C   0  0  0  0  0  0  0  0  0  0  0  0
    4.3399   -0.2702    0.0000 C   0  0  0  0  0  0  0  0  0  0  0  0
    5.7078    0.3453    0.0000 C   0  0  0  0  0  0  0  0  0  0  0  0
    5.8588    1.8377    0.0000 C   0  0  0  0  0  0  0  0  0  0  0  0
    7.2267    2.4532    0.0000 F   0  0  0  0  0  0  0  0  0  0  0  0
    4.6418    2.7146    0.0000 C   0  0  0  0  0  0  0  0  0  0  0  0
    4.7927    4.2070    0.0000 Cl  0  0  0  0  0  0  0  0  0  0  0  0
    3.2739    2.0991    0.0000 C   0  0  0  0  0  0  0  0  0  0  0  0
    0.2362   -2.1166    0.0000 C   0  0  0  0  0  0  0  0  0  0  0  0
   -0.9808   -1.2397    0.0000 C   0  0  0  0  0  0  0  0  0  0  0  0
   -2.3487   -1.8551    0.0000 C   0  0  0  0  0  0  0  0  0  0  0  0
   -3.5657   -0.9782    0.0000 O   0  0  0  0  0  0  0  0  0  0  0  0
   -3.4148    0.5142    0.0000 C   0  0  0  0  0  0  0  0  0  0  0  0
   -4.6317    1.3911    0.0000 C   0  0  0  0  0  0  0  0  0  0  0  0
   -4.4808    2.8835    0.0000 N   0  0  0  0  0  0  0  0  0  0  0  0
   -5.5994    3.8828    0.0000 C   0  0  0  0  0  0  0  0  0  0  0  0
   -4.9947    5.2555    0.0000 C   0  0  0  0  0  0  0  0  0  0  0  0
   -3.5023    5.1045    0.0000 C   0  0  0  0  0  0  0  0  0  0  0  0
   -3.1847    3.6386    0.0000 C   0  0  0  0  0  0  0  0  0  0  0  0
  1  2  1  0
  2  3  1  0
  3  4  2  0
  4  5  1  0
  5  6  2  0
  6  7  1  0
  7  8  2  0
  8  9  1  0
  9 10  1  0
 10 11  1  0
 11 12  1  0
 12 13  2  0
 13 14  1  0
 14 15  1  0
 14 16  2  0
 16 17  1  0
 16 18  1  0
  9 19  2  0
 19 20  1  0
 20 21  2  0
 21 22  1  0
 22 23  1  0
 23 24  1  0
 24 25  1  0
 25 26  1  0
 26 27  1  0
 27 28  1  0
 28 29  1  0
 21  3  1  0
 19  5  1  0
 18 11  2  0
 29 25  1  0
M  END
>  <ChEMBL_ID>  (67) 
CHEMBL57758

>  <SMILES>  (67) 
COc1cc2ncnc(Nc3ccc(F)c(Cl)c3)c2cc1OCCN1CCCC1

>  <MPO_Hit_Score>  (67) 
0.53139999999999998

>  <Tanimoto_to_Gefitinib>  (67) 
0.78459999999999996

>  <MolecularWeight>  (67) 
416.88

>  <LogP>  (67) 
4.6500000000000004

>  <TPSA>  (67) 
59.509999999999998

$$$$
CHEMBL3774609
     RDKit          2D

 32 36  0  0  0  0  0  0  0  0999 V2000
    7.3785   -4.7918    0.0000 Br  0  0  0  0  0  0  0  0  0  0  0  0
    6.2596   -3.7928    0.0000 C   0  0  0  0  0  0  0  0  0  0  0  0
    4.8349   -4.2623    0.0000 C   0  0  0  0  0  0  0  0  0  0  0  0
    3.7160   -3.2633    0.0000 C   0  0  0  0  0  0  0  0  0  0  0  0
    4.0217   -1.7948    0.0000 C   0  0  0  0  0  0  0  0  0  0  0  0
    2.9028   -0.7958    0.0000 N   0  0  0  0  0  0  0  0  0  0  0  0
    3.2085    0.6727    0.0000 C   0  0  0  0  0  0  0  0  0  0  0  0
    4.6331    1.1423    0.0000 N   0  0  0  0  0  0  0  0  0  0  0  0
    4.9388    2.6108    0.0000 C   0  0  0  0  0  0  0  0  0  0  0  0
    3.8198    3.6098    0.0000 N   0  0  0  0  0  0  0  0  0  0  0  0
    2.3952    3.1403    0.0000 C   0  0  0  0  0  0  0  0  0  0  0  0
    1.2763    4.1393    0.0000 C   0  0  0  0  0  0  0  0  0  0  0  0
   -0.1483    3.6697    0.0000 C   0  0  0  0  0  0  0  0  0  0  0  0
   -1.2673    4.6687    0.0000 O   0  0  0  0  0  0  0  0  0  0  0  0
   -2.6919    4.1992    0.0000 C   0  0  0  0  0  0  0  0  0  0  0  0
   -2.9976    2.7307    0.0000 C   0  0  0  0  0  0  0  0  0  0  0  0
   -4.4222    2.2612    0.0000 O   0  0  0  0  0  0  0  0  0  0  0  0
   -1.8786    1.7317    0.0000 N   0  0  0  0  0  0  0  0  0  0  0  0
   -2.1843    0.2632    0.0000 C   0  0  0  0  0  0  0  0  0  0  0  0
   -3.6090   -0.2063    0.0000 C   0  0  0  0  0  0  0  0  0  0  0  0
   -3.9146   -1.6749    0.0000 C   0  0  0  0  0  0  0  0  0  0  0  0
   -5.3393   -2.1444    0.0000 N   0  0  0  0  0  0  0  0  0  0  0  0
   -6.4582   -1.1454    0.0000 C   0  0  0  0  0  0  0  0  0  0  0  0
   -7.8828   -1.6149    0.0000 C   0  0  0  0  0  0  0  0  0  0  0  0
   -8.1885   -3.0834    0.0000 O   0  0  0  0  0  0  0  0  0  0  0  0
   -7.0696   -4.0824    0.0000 C   0  0  0  0  0  0  0  0  0  0  0  0
   -5.6450   -3.6129    0.0000 C   0  0  0  0  0  0  0  0  0  0  0  0
   -0.4540    2.2012    0.0000 C   0  0  0  0  0  0  0  0  0  0  0  0
    0.6649    1.2022    0.0000 C   0  0  0  0  0  0  0  0  0  0  0  0
    2.0895    1.6717    0.0000 C   0  0  0  0  0  0  0  0  0  0  0  0
    5.4463   -1.3252    0.0000 C   0  0  0  0  0  0  0  0  0  0  0  0
    6.5653   -2.3242    0.0000 C   0  0  0  0  0  0  0  0  0  0  0  0
  1  2  1  0
  2  3  1  0
  3  4  2  0
  4  5  1  0
  5  6  1  0
  6  7  1  0
  7  8  1  0
  8  9  2  0
  9 10  1  0
 10 11  2  0
 11 12  1  0
 12 13  2  0
 13 14  1  0
 14 15  1  0
 15 16  1  0
 16 17  2  0
 16 18  1  0
 18 19  1  0
 19 20  1  0
 20 21  1  0
 21 22  1  0
 22 23  1  0
 23 24  1  0
 24 25  1  0
 25 26  1  0
 26 27  1  0
 18 28  1  0
 28 29  2  0
 29 30  1  0
  5 31  2  0
 31 32  1  0
 32  2  2  0
 30  7  2  0
 30 11  1  0
 28 13  1  0
 27 22  1  0
M  END
>  <ChEMBL_ID>  (68) 
CHEMBL3774609

>  <SMILES>  (68) 
O=C1COc2cc3ncnc(Nc4ccc(Br)cc4)c3cc2N1CCCN1CCOCC1

>  <MPO_Hit_Score>  (68) 
0.53080000000000005

>  <Tanimoto_to_Gefitinib>  (68) 
0.439

>  <MolecularWeight>  (68) 
498.38

>  <LogP>  (68) 
3.5800000000000001

>  <TPSA>  (68) 
79.819999999999993

$$$$
CHEMBL3814257
     RDKit          2D

 23 25  0  0  0  0  0  0  0  0999 V2000
   -6.6546   -2.8439    0.0000 C   0  0  0  0  0  0  0  0  0  0  0  0
   -5.8098   -1.6044    0.0000 C   0  0  0  0  0  0  0  0  0  0  0  0
   -6.4608   -0.2531    0.0000 O   0  0  0  0  0  0  0  0  0  0  0  0
   -4.3139   -1.7163    0.0000 N   0  0  0  0  0  0  0  0  0  0  0  0
   -3.4691   -0.4768    0.0000 C   0  0  0  0  0  0  0  0  0  0  0  0
   -4.1202    0.8745    0.0000 C   0  0  0  0  0  0  0  0  0  0  0  0
   -3.2754    2.1140    0.0000 C   0  0  0  0  0  0  0  0  0  0  0  0
   -1.7795    2.0021    0.0000 C   0  0  0  0  0  0  0  0  0  0  0  0
   -0.9348    3.2416    0.0000 N   0  0  0  0  0  0  0  0  0  0  0  0
    0.5611    3.1297    0.0000 C   0  0  0  0  0  0  0  0  0  0  0  0
    1.2121    1.7784    0.0000 N   0  0  0  0  0  0  0  0  0  0  0  0
    0.3673    0.5389    0.0000 C   0  0  0  0  0  0  0  0  0  0  0  0
    1.0183   -0.8125    0.0000 N   0  0  0  0  0  0  0  0  0  0  0  0
    2.5142   -0.9243    0.0000 C   0  0  0  0  0  0  0  0  0  0  0  0
    3.1652   -2.2757    0.0000 C   0  0  0  0  0  0  0  0  0  0  0  0
    4.6610   -2.3876    0.0000 C   0  0  0  0  0  0  0  0  0  0  0  0
    5.5058   -1.1481    0.0000 C   0  0  0  0  0  0  0  0  0  0  0  0
    7.0016   -1.2599    0.0000 F   0  0  0  0  0  0  0  0  0  0  0  0
    4.8548    0.2033    0.0000 C   0  0  0  0  0  0  0  0  0  0  0  0
    5.6996    1.4428    0.0000 Cl  0  0  0  0  0  0  0  0  0  0  0  0
    3.3589    0.3152    0.0000 C   0  0  0  0  0  0  0  0  0  0  0  0
   -1.1285    0.6508    0.0000 C   0  0  0  0  0  0  0  0  0  0  0  0
   -1.9733   -0.5887    0.0000 C   0  0  0  0  0  0  0  0  0  0  0  0
  1  2  1  0
  2  3  2  0
  2  4  1  0
  4  5  1  0
  5  6  1  0
  6  7  2  0
  7  8  1  0
  8  9  2  0
  9 10  1  0
 10 11  2  0
 11 12  1  0
 12 13  1  0
 13 14  1  0
 14 15  1  0
 15 16  2  0
 16 17  1  0
 17 18  1  0
 17 19  2  0
 19 20  1  0
 19 21  1  0
 12 22  2  0
 22 23  1  0
 23  5  2  0
 22  8  1  0
 21 14  2  0
M  END
>  <ChEMBL_ID>  (69) 
CHEMBL3814257

>  <SMILES>  (69) 
CC(=O)Nc1ccc2ncnc(Nc3ccc(F)c(Cl)c3)c2c1

>  <MPO_Hit_Score>  (69) 
0.53069999999999995

>  <Tanimoto_to_Gefitinib>  (69) 
0.44440000000000002

>  <MolecularWeight>  (69) 
330.75

>  <LogP>  (69) 
4.1200000000000001

>  <TPSA>  (69) 
66.909999999999997

$$$$
CHEMBL2064391
     RDKit          2D

 33 37  0  0  0  0  0  0  0  0999 V2000
    9.0785   -2.0964    0.0000 C   0  0  0  0  0  0  0  0  0  0  0  0
    7.8422   -1.2470    0.0000 C   0  0  0  0  0  0  0  0  0  0  0  0
    7.9596    0.2484    0.0000 O   0  0  0  0  0  0  0  0  0  0  0  0
    6.4884   -1.8930    0.0000 C   0  0  0  0  0  0  0  0  0  0  0  0
    6.3710   -3.3884    0.0000 C   0  0  0  0  0  0  0  0  0  0  0  0
    5.0172   -4.0344    0.0000 C   0  0  0  0  0  0  0  0  0  0  0  0
    3.7809   -3.1850    0.0000 C   0  0  0  0  0  0  0  0  0  0  0  0
    3.8983   -1.6896    0.0000 C   0  0  0  0  0  0  0  0  0  0  0  0
    2.6620   -0.8402    0.0000 N   0  0  0  0  0  0  0  0  0  0  0  0
    2.7794    0.6552    0.0000 C   0  0  0  0  0  0  0  0  0  0  0  0
    4.1332    1.3012    0.0000 N   0  0  0  0  0  0  0  0  0  0  0  0
    4.2506    2.7966    0.0000 C   0  0  0  0  0  0  0  0  0  0  0  0
    3.0143    3.6459    0.0000 N   0  0  0  0  0  0  0  0  0  0  0  0
    1.6605    2.9999    0.0000 C   0  0  0  0  0  0  0  0  0  0  0  0
    0.4242    3.8493    0.0000 C   0  0  0  0  0  0  0  0  0  0  0  0
   -0.9296    3.2033    0.0000 C   0  0  0  0  0  0  0  0  0  0  0  0
   -2.3155    3.7771    0.0000 O   0  0  0  0  0  0  0  0  0  0  0  0
   -3.2895    2.6364    0.0000 C   0  0  0  0  0  0  0  0  0  0  0  0
   -4.7849    2.7538    0.0000 O   0  0  0  0  0  0  0  0  0  0  0  0
   -2.5055    1.3575    0.0000 N   0  0  0  0  0  0  0  0  0  0  0  0
   -3.0793   -0.0284    0.0000 C   0  0  0  0  0  0  0  0  0  0  0  0
   -4.5664   -0.2244    0.0000 C   0  0  0  0  0  0  0  0  0  0  0  0
   -5.1402   -1.6103    0.0000 C   0  0  0  0  0  0  0  0  0  0  0  0
   -6.6274   -1.8064    0.0000 N   0  0  0  0  0  0  0  0  0  0  0  0
   -7.5407   -0.6165    0.0000 C   0  0  0  0  0  0  0  0  0  0  0  0
   -9.0278   -0.8126    0.0000 C   0  0  0  0  0  0  0  0  0  0  0  0
   -9.6016   -2.1985    0.0000 O   0  0  0  0  0  0  0  0  0  0  0  0
   -8.6883   -3.3884    0.0000 C   0  0  0  0  0  0  0  0  0  0  0  0
   -7.2011   -3.1923    0.0000 C   0  0  0  0  0  0  0  0  0  0  0  0
   -1.0470    1.7080    0.0000 C   0  0  0  0  0  0  0  0  0  0  0  0
    0.1893    0.8586    0.0000 C   0  0  0  0  0  0  0  0  0  0  0  0
    1.5431    1.5046    0.0000 C   0  0  0  0  0  0  0  0  0  0  0  0
    5.2521   -1.0436    0.0000 C   0  0  0  0  0  0  0  0  0  0  0  0
  1  2  1  0
  2  3  2  0
  2  4  1  0
  4  5  2  0
  5  6  1  0
  6  7  2  0
  7  8  1  0
  8  9  1  0
  9 10  1  0
 10 11  1  0
 11 12  2  0
 12 13  1  0
 13 14  2  0
 14 15  1  0
 15 16  2  0
 16 17  1  0
 17 18  1  0
 18 19  2  0
 18 20  1  0
 20 21  1  0
 21 22  1  0
 22 23  1  0
 23 24  1  0
 24 25  1  0
 25 26  1  0
 26 27  1  0
 27 28  1  0
 28 29  1  0
 20 30  1  0
 30 31  2  0
 31 32  1  0
  8 33  2  0
 33  4  1  0
 32 10  2  0
 32 14  1  0
 30 16  1  0
 29 24  1  0
M  END
>  <ChEMBL_ID>  (70) 
CHEMBL2064391

>  <SMILES>  (70) 
CC(=O)c1cccc(Nc2ncnc3cc4oc(=O)n(CCCN5CCOCC5)c4cc23)c1

>  <MPO_Hit_Score>  (70) 
0.52980000000000005

>  <Tanimoto_to_Gefitinib>  (70) 
0.42049999999999998

>  <MolecularWeight>  (70) 
447.5

>  <LogP>  (70) 
3.21

>  <TPSA>  (70) 
102.48999999999999

$$$$
CHEMBL3900054
     RDKit          2D

 32 35  0  0  0  0  0  0  0  0999 V2000
   -3.1552   -5.1567    0.0000 C   0  0  0  0  0  0  0  0  0  0  0  0
   -1.6919   -5.4862    0.0000 O   0  0  0  0  0  0  0  0  0  0  0  0
   -0.6748   -4.3837    0.0000 C   0  0  0  0  0  0  0  0  0  0  0  0
    0.7885   -4.7132    0.0000 C   0  0  0  0  0  0  0  0  0  0  0  0
    1.8056   -3.6107    0.0000 C   0  0  0  0  0  0  0  0  0  0  0  0
    3.2690   -3.9402    0.0000 N   0  0  0  0  0  0  0  0  0  0  0  0
    4.2860   -2.8376    0.0000 C   0  0  0  0  0  0  0  0  0  0  0  0
    3.8397   -1.4056    0.0000 N   0  0  0  0  0  0  0  0  0  0  0  0
    2.3763   -1.0761    0.0000 C   0  0  0  0  0  0  0  0  0  0  0  0
    1.9300    0.3560    0.0000 N   0  0  0  0  0  0  0  0  0  0  0  0
    2.9471    1.4586    0.0000 C   0  0  0  0  0  0  0  0  0  0  0  0
    4.4105    1.1290    0.0000 C   0  0  0  0  0  0  0  0  0  0  0  0
    5.4275    2.2316    0.0000 C   0  0  0  0  0  0  0  0  0  0  0  0
    4.9812    3.6636    0.0000 C   0  0  0  0  0  0  0  0  0  0  0  0
    3.5178    3.9932    0.0000 C   0  0  0  0  0  0  0  0  0  0  0  0
    3.0715    5.4252    0.0000 Cl  0  0  0  0  0  0  0  0  0  0  0  0
    2.5008    2.8906    0.0000 C   0  0  0  0  0  0  0  0  0  0  0  0
    1.0374    3.2201    0.0000 F   0  0  0  0  0  0  0  0  0  0  0  0
    1.3593   -2.1786    0.0000 C   0  0  0  0  0  0  0  0  0  0  0  0
   -0.1041   -1.8491    0.0000 C   0  0  0  0  0  0  0  0  0  0  0  0
   -1.1211   -2.9516    0.0000 C   0  0  0  0  0  0  0  0  0  0  0  0
   -2.5845   -2.6221    0.0000 O   0  0  0  0  0  0  0  0  0  0  0  0
   -3.0308   -1.1900    0.0000 C   0  0  0  0  0  0  0  0  0  0  0  0
   -2.0137   -0.0875    0.0000 C   0  0  0  0  0  0  0  0  0  0  0  0
   -2.4600    1.3446    0.0000 C   0  0  0  0  0  0  0  0  0  0  0  0
   -3.9234    1.6741    0.0000 N   0  0  0  0  0  0  0  0  0  0  0  0
   -4.9404    0.5715    0.0000 C   0  0  0  0  0  0  0  0  0  0  0  0
   -4.4941   -0.8605    0.0000 C   0  0  0  0  0  0  0  0  0  0  0  0
   -4.3697    3.1062    0.0000 C   0  0  0  0  0  0  0  0  0  0  0  0
   -5.8331    3.4357    0.0000 O   0  0  0  0  0  0  0  0  0  0  0  0
   -3.3526    4.2087    0.0000 C   0  0  0  0  0  0  0  0  0  0  0  0
   -3.7989    5.6408    0.0000 O   0  0  0  0  0  0  0  0  0  0  0  0
  1  2  1  0
  2  3  1  0
  3  4  2  0
  4  5  1  0
  5  6  2  0
  6  7  1  0
  7  8  2  0
  8  9  1  0
  9 10  1  0
 10 11  1  0
 11 12  2  0
 12 13  1  0
 13 14  2  0
 14 15  1  0
 15 16  1  0
 15 17  2  0
 17 18  1  0
  9 19  2  0
 19 20  1  0
 20 21  2  0
 21 22  1  0
 22 23  1  0
 23 24  1  0
 24 25  1  0
 25 26  1  0
 26 27  1  0
 27 28  1  0
 26 29  1  0
 29 30  2  0
 29 31  1  0
 31 32  1  0
 21  3  1  0
 19  5  1  0
 17 11  1  0
 28 23  1  0
M  END
>  <ChEMBL_ID>  (71) 
CHEMBL3900054

>  <SMILES>  (71) 
COc1cc2ncnc(Nc3cccc(Cl)c3F)c2cc1OC1CCN(C(=O)CO)CC1

>  <MPO_Hit_Score>  (71) 
0.52629999999999999

>  <Tanimoto_to_Gefitinib>  (71) 
0.42049999999999998

>  <MolecularWeight>  (71) 
460.88999999999999

>  <LogP>  (71) 
3.54

>  <TPSA>  (71) 
96.810000000000002

$$$$
CHEMBL3092322
     RDKit          2D

 32 35  0  0  0  0  0  0  0  0999 V2000
   -8.3195   -4.2386    0.0000 O   0  0  0  0  0  0  0  0  0  0  0  0
   -6.8221   -4.3265    0.0000 C   0  0  0  0  0  0  0  0  0  0  0  0
   -5.9972   -3.0737    0.0000 C   0  0  0  0  0  0  0  0  0  0  0  0
   -4.4998   -3.1617    0.0000 N   0  0  0  0  0  0  0  0  0  0  0  0
   -3.6749   -1.9089    0.0000 C   0  0  0  0  0  0  0  0  0  0  0  0
   -4.3474   -0.5681    0.0000 O   0  0  0  0  0  0  0  0  0  0  0  0
   -2.1775   -1.9969    0.0000 N   0  0  0  0  0  0  0  0  0  0  0  0
   -1.3525   -0.7441    0.0000 C   0  0  0  0  0  0  0  0  0  0  0  0
    0.1449   -0.8321    0.0000 C   0  0  0  0  0  0  0  0  0  0  0  0
    0.9698    0.4207    0.0000 C   0  0  0  0  0  0  0  0  0  0  0  0
    2.4672    0.3327    0.0000 C   0  0  0  0  0  0  0  0  0  0  0  0
    3.1397   -1.0081    0.0000 N   0  0  0  0  0  0  0  0  0  0  0  0
    4.6371   -1.0961    0.0000 C   0  0  0  0  0  0  0  0  0  0  0  0
    5.3096   -2.4369    0.0000 C   0  0  0  0  0  0  0  0  0  0  0  0
    6.8070   -2.5249    0.0000 C   0  0  0  0  0  0  0  0  0  0  0  0
    7.6320   -1.2721    0.0000 C   0  0  0  0  0  0  0  0  0  0  0  0
    9.1294   -1.3601    0.0000 F   0  0  0  0  0  0  0  0  0  0  0  0
    6.9595    0.0687    0.0000 C   0  0  0  0  0  0  0  0  0  0  0  0
    7.7844    1.3215    0.0000 Cl  0  0  0  0  0  0  0  0  0  0  0  0
    5.4620    0.1567    0.0000 C   0  0  0  0  0  0  0  0  0  0  0  0
    3.2921    1.5855    0.0000 N   0  0  0  0  0  0  0  0  0  0  0  0
    2.6196    2.9263    0.0000 C   0  0  0  0  0  0  0  0  0  0  0  0
    1.1222    3.0143    0.0000 N   0  0  0  0  0  0  0  0  0  0  0  0
    0.2973    1.7615    0.0000 C   0  0  0  0  0  0  0  0  0  0  0  0
   -1.2001    1.8495    0.0000 C   0  0  0  0  0  0  0  0  0  0  0  0
   -2.0250    0.5967    0.0000 C   0  0  0  0  0  0  0  0  0  0  0  0
   -3.5225    0.6847    0.0000 O   0  0  0  0  0  0  0  0  0  0  0  0
   -4.1950    2.0255    0.0000 C   0  0  0  0  0  0  0  0  0  0  0  0
   -5.6750    2.2695    0.0000 C   0  0  0  0  0  0  0  0  0  0  0  0
   -5.9002    3.7525    0.0000 C   0  0  0  0  0  0  0  0  0  0  0  0
   -4.5594    4.4250    0.0000 O   0  0  0  0  0  0  0  0  0  0  0  0
   -3.5055    3.3576    0.0000 C   0  0  0  0  0  0  0  0  0  0  0  0
  1  2  1  0
  2  3  1  0
  3  4  1  0
  4  5  1  0
  5  6  2  0
  5  7  1  0
  7  8  1  0
  8  9  2  0
  9 10  1  0
 10 11  2  0
 11 12  1  0
 12 13  1  0
 13 14  1  0
 14 15  2  0
 15 16  1  0
 16 17  1  0
 16 18  2  0
 18 19  1  0
 18 20  1  0
 11 21  1  0
 21 22  2  0
 22 23  1  0
 23 24  2  0
 24 25  1  0
 25 26  2  0
 26 27  1  0
 28 27  1  1
 28 29  1  0
 29 30  1  0
 30 31  1  0
 31 32  1  0
 26  8  1  0
 24 10  1  0
 20 13  2  0
 32 28  1  0
M  END
>  <ChEMBL_ID>  (72) 
CHEMBL3092322

>  <SMILES>  (72) 
O=C(NCCO)Nc1cc2c(Nc3ccc(F)c(Cl)c3)ncnc2cc1O[C@H]1CCOC1

>  <MPO_Hit_Score>  (72) 
0.52559999999999996

>  <Tanimoto_to_Gefitinib>  (72) 
0.44940000000000002

>  <MolecularWeight>  (72) 
461.88

>  <LogP>  (72) 
3.4500000000000002

>  <TPSA>  (72) 
117.63

$$$$
CHEMBL380454
     RDKit          2D

 30 33  0  0  0  0  0  0  0  0999 V2000
   -6.4886   -2.0958    0.0000 C   0  0  0  0  0  0  0  0  0  0  0  0
   -5.5311   -0.9412    0.0000 O   0  0  0  0  0  0  0  0  0  0  0  0
   -4.0524   -1.1931    0.0000 C   0  0  0  0  0  0  0  0  0  0  0  0
   -3.5313   -2.5997    0.0000 C   0  0  0  0  0  0  0  0  0  0  0  0
   -2.0526   -2.8516    0.0000 C   0  0  0  0  0  0  0  0  0  0  0  0
   -1.5314   -4.2582    0.0000 N   0  0  0  0  0  0  0  0  0  0  0  0
   -0.0527   -4.5102    0.0000 C   0  0  0  0  0  0  0  0  0  0  0  0
    0.9048   -3.3556    0.0000 N   0  0  0  0  0  0  0  0  0  0  0  0
    0.3837   -1.9490    0.0000 C   0  0  0  0  0  0  0  0  0  0  0  0
    1.3412   -0.7944    0.0000 N   0  0  0  0  0  0  0  0  0  0  0  0
    2.8199   -1.0464    0.0000 C   0  0  0  0  0  0  0  0  0  0  0  0
    3.3410   -2.4529    0.0000 C   0  0  0  0  0  0  0  0  0  0  0  0
    4.8197   -2.7049    0.0000 C   0  0  0  0  0  0  0  0  0  0  0  0
    5.7773   -1.5503    0.0000 C   0  0  0  0  0  0  0  0  0  0  0  0
    5.2561   -0.1437    0.0000 C   0  0  0  0  0  0  0  0  0  0  0  0
    6.2137    1.0109    0.0000 Cl  0  0  0  0  0  0  0  0  0  0  0  0
    3.7774    0.1082    0.0000 C   0  0  0  0  0  0  0  0  0  0  0  0
    3.2563    1.5148    0.0000 F   0  0  0  0  0  0  0  0  0  0  0  0
   -1.0950   -1.6970    0.0000 C   0  0  0  0  0  0  0  0  0  0  0  0
   -1.6162   -0.2905    0.0000 C   0  0  0  0  0  0  0  0  0  0  0  0
   -3.0948   -0.0385    0.0000 C   0  0  0  0  0  0  0  0  0  0  0  0
   -3.6160    1.3680    0.0000 C   0  0  0  0  0  0  0  0  0  0  0  0
   -2.6584    2.5226    0.0000 N   0  0  0  0  0  0  0  0  0  0  0  0
   -3.0297    3.9760    0.0000 C   0  0  0  0  0  0  0  0  0  0  0  0
   -1.7622    4.7782    0.0000 C   0  0  0  0  0  0  0  0  0  0  0  0
   -0.6076    3.8206    0.0000 C   0  0  0  0  0  0  0  0  0  0  0  0
   -1.1615    2.4266    0.0000 C   0  0  0  0  0  0  0  0  0  0  0  0
    0.8457    4.1919    0.0000 C   0  0  0  0  0  0  0  0  0  0  0  0
    1.2508    5.6361    0.0000 O   0  0  0  0  0  0  0  0  0  0  0  0
    1.8939    3.1189    0.0000 N   0  0  0  0  0  0  0  0  0  0  0  0
  1  2  1  0
  2  3  1  0
  3  4  2  0
  4  5  1  0
  5  6  2  0
  6  7  1  0
  7  8  2  0
  8  9  1  0
  9 10  1  0
 10 11  1  0
 11 12  2  0
 12 13  1  0
 13 14  2  0
 14 15  1  0
 15 16  1  0
 15 17  2  0
 17 18  1  0
  9 19  2  0
 19 20  1  0
 20 21  2  0
 21 22  1  0
 22 23  1  0
 23 24  1  0
 24 25  1  0
 25 26  1  0
 26 27  1  0
 26 28  1  6
 28 29  2  0
 28 30  1  0
 21  3  1  0
 19  5  1  0
 17 11  1  0
 27 23  1  0
M  END
>  <ChEMBL_ID>  (73) 
CHEMBL380454

>  <SMILES>  (73) 
COc1cc2ncnc(Nc3cccc(Cl)c3F)c2cc1CN1CC[C@H](C(N)=O)C1

>  <MPO_Hit_Score>  (73) 
0.52280000000000004

>  <Tanimoto_to_Gefitinib>  (73) 
0.40000000000000002

>  <MolecularWeight>  (73) 
429.88

>  <LogP>  (73) 
3.48

>  <TPSA>  (73) 
93.370000000000005

$$$$
CHEMBL2064379
     RDKit          2D

 32 36  0  0  0  0  0  0  0  0999 V2000
    8.2413   -0.9780    0.0000 C   0  0  0  0  0  0  0  0  0  0  0  0
    6.8998   -1.6492    0.0000 C   0  0  0  0  0  0  0  0  0  0  0  0
    6.8104   -3.1465    0.0000 C   0  0  0  0  0  0  0  0  0  0  0  0
    5.4689   -3.8177    0.0000 C   0  0  0  0  0  0  0  0  0  0  0  0
    5.3795   -5.3151    0.0000 C   0  0  0  0  0  0  0  0  0  0  0  0
    4.2169   -2.9916    0.0000 C   0  0  0  0  0  0  0  0  0  0  0  0
    4.3064   -1.4943    0.0000 C   0  0  0  0  0  0  0  0  0  0  0  0
    3.0543   -0.6682    0.0000 N   0  0  0  0  0  0  0  0  0  0  0  0
    3.1438    0.8292    0.0000 C   0  0  0  0  0  0  0  0  0  0  0  0
    4.4852    1.5004    0.0000 N   0  0  0  0  0  0  0  0  0  0  0  0
    4.5747    2.9977    0.0000 C   0  0  0  0  0  0  0  0  0  0  0  0
    3.3227    3.8238    0.0000 N   0  0  0  0  0  0  0  0  0  0  0  0
    1.9812    3.1526    0.0000 C   0  0  0  0  0  0  0  0  0  0  0  0
    0.7292    3.9787    0.0000 C   0  0  0  0  0  0  0  0  0  0  0  0
   -0.6122    3.3075    0.0000 C   0  0  0  0  0  0  0  0  0  0  0  0
   -2.0087    3.8553    0.0000 O   0  0  0  0  0  0  0  0  0  0  0  0
   -2.9611    2.6965    0.0000 C   0  0  0  0  0  0  0  0  0  0  0  0
   -4.4585    2.7859    0.0000 O   0  0  0  0  0  0  0  0  0  0  0  0
   -2.1534    1.4326    0.0000 N   0  0  0  0  0  0  0  0  0  0  0  0
   -2.7011    0.0361    0.0000 C   0  0  0  0  0  0  0  0  0  0  0  0
   -4.1843   -0.1877    0.0000 C   0  0  0  0  0  0  0  0  0  0  0  0
   -4.7321   -1.5841    0.0000 C   0  0  0  0  0  0  0  0  0  0  0  0
   -6.2153   -1.8079    0.0000 N   0  0  0  0  0  0  0  0  0  0  0  0
   -7.1507   -0.6353    0.0000 C   0  0  0  0  0  0  0  0  0  0  0  0
   -8.6339   -0.8592    0.0000 C   0  0  0  0  0  0  0  0  0  0  0  0
   -9.1817   -2.2556    0.0000 O   0  0  0  0  0  0  0  0  0  0  0  0
   -8.2463   -3.4282    0.0000 C   0  0  0  0  0  0  0  0  0  0  0  0
   -6.7631   -3.2043    0.0000 C   0  0  0  0  0  0  0  0  0  0  0  0
   -0.7017    1.8102    0.0000 C   0  0  0  0  0  0  0  0  0  0  0  0
    0.5503    0.9841    0.0000 C   0  0  0  0  0  0  0  0  0  0  0  0
    1.8918    1.6553    0.0000 C   0  0  0  0  0  0  0  0  0  0  0  0
    5.6478   -0.8231    0.0000 C   0  0  0  0  0  0  0  0  0  0  0  0
  1  2  1  0
  2  3  2  0
  3  4  1  0
  4  5  1  0
  4  6  2  0
  6  7  1  0
  7  8  1  0
  8  9  1  0
  9 10  1  0
 10 11  2  0
 11 12  1  0
 12 13  2  0
 13 14  1  0
 14 15  2  0
 15 16  1  0
 16 17  1  0
 17 18  2  0
 17 19  1  0
 19 20  1  0
 20 21  1  0
 21 22  1  0
 22 23  1  0
 23 24  1  0
 24 25  1  0
 25 26  1  0
 26 27  1  0
 27 28  1  0
 19 29  1  0
 29 30  2  0
 30 31  1  0
  7 32  2  0
 32  2  1  0
 31  9  2  0
 31 13  1  0
 29 15  1  0
 28 23  1  0
M  END
>  <ChEMBL_ID>  (74) 
CHEMBL2064379

>  <SMILES>  (74) 
Cc1cc(C)cc(Nc2ncnc3cc4oc(=O)n(CCCN5CCOCC5)c4cc23)c1

>  <MPO_Hit_Score>  (74) 
0.52229999999999999

>  <Tanimoto_to_Gefitinib>  (74) 
0.43209999999999998

>  <MolecularWeight>  (74) 
433.50999999999999

>  <LogP>  (74) 
3.6200000000000001

>  <TPSA>  (74) 
85.420000000000002

$$$$
CHEMBL3774906
     RDKit          2D

 32 36  0  0  0  0  0  0  0  0999 V2000
    7.8723   -2.3127    0.0000 Br  0  0  0  0  0  0  0  0  0  0  0  0
    6.4275   -2.7159    0.0000 C   0  0  0  0  0  0  0  0  0  0  0  0
    6.0543   -4.1688    0.0000 C   0  0  0  0  0  0  0  0  0  0  0  0
    4.6095   -4.5720    0.0000 C   0  0  0  0  0  0  0  0  0  0  0  0
    3.5379   -3.5223    0.0000 C   0  0  0  0  0  0  0  0  0  0  0  0
    3.9111   -2.0695    0.0000 C   0  0  0  0  0  0  0  0  0  0  0  0
    2.8396   -1.0199    0.0000 N   0  0  0  0  0  0  0  0  0  0  0  0
    3.2128    0.4330    0.0000 C   0  0  0  0  0  0  0  0  0  0  0  0
    4.6576    0.8362    0.0000 N   0  0  0  0  0  0  0  0  0  0  0  0
    5.0308    2.2890    0.0000 C   0  0  0  0  0  0  0  0  0  0  0  0
    3.9592    3.3386    0.0000 N   0  0  0  0  0  0  0  0  0  0  0  0
    2.5145    2.9354    0.0000 C   0  0  0  0  0  0  0  0  0  0  0  0
    1.4429    3.9851    0.0000 C   0  0  0  0  0  0  0  0  0  0  0  0
   -0.0019    3.5819    0.0000 C   0  0  0  0  0  0  0  0  0  0  0  0
   -1.0735    4.6315    0.0000 O   0  0  0  0  0  0  0  0  0  0  0  0
   -2.5183    4.2283    0.0000 C   0  0  0  0  0  0  0  0  0  0  0  0
   -2.8915    2.7755    0.0000 C   0  0  0  0  0  0  0  0  0  0  0  0
   -4.3363    2.3723    0.0000 O   0  0  0  0  0  0  0  0  0  0  0  0
   -1.8199    1.7259    0.0000 N   0  0  0  0  0  0  0  0  0  0  0  0
   -2.1932    0.2730    0.0000 C   0  0  0  0  0  0  0  0  0  0  0  0
   -3.6380   -0.1302    0.0000 C   0  0  0  0  0  0  0  0  0  0  0  0
   -4.0112   -1.5830    0.0000 C   0  0  0  0  0  0  0  0  0  0  0  0
   -5.4560   -1.9862    0.0000 N   0  0  0  0  0  0  0  0  0  0  0  0
   -6.5276   -0.9365    0.0000 C   0  0  0  0  0  0  0  0  0  0  0  0
   -7.9724   -1.3397    0.0000 C   0  0  0  0  0  0  0  0  0  0  0  0
   -8.3456   -2.7926    0.0000 O   0  0  0  0  0  0  0  0  0  0  0  0
   -7.2740   -3.8422    0.0000 C   0  0  0  0  0  0  0  0  0  0  0  0
   -5.8292   -3.4390    0.0000 C   0  0  0  0  0  0  0  0  0  0  0  0
   -0.3751    2.1290    0.0000 C   0  0  0  0  0  0  0  0  0  0  0  0
    0.6964    1.0794    0.0000 C   0  0  0  0  0  0  0  0  0  0  0  0
    2.1412    1.4826    0.0000 C   0  0  0  0  0  0  0  0  0  0  0  0
    5.3559   -1.6663    0.0000 C   0  0  0  0  0  0  0  0  0  0  0  0
  1  2  1  0
  2  3  1  0
  3  4  2  0
  4  5  1  0
  5  6  2  0
  6  7  1  0
  7  8  1  0
  8  9  1  0
  9 10  2  0
 10 11  1  0
 11 12  2  0
 12 13  1  0
 13 14  2  0
 14 15  1  0
 15 16  1  0
 16 17  1  0
 17 18  2  0
 17 19  1  0
 19 20  1  0
 20 21  1  0
 21 22  1  0
 22 23  1  0
 23 24  1  0
 24 25  1  0
 25 26  1  0
 26 27  1  0
 27 28  1  0
 19 29  1  0
 29 30  2  0
 30 31  1  0
  6 32  1  0
 32  2  2  0
 31  8  2  0
 31 12  1  0
 29 14  1  0
 28 23  1  0
M  END
>  <ChEMBL_ID>  (75) 
CHEMBL3774906

>  <SMILES>  (75) 
O=C1COc2cc3ncnc(Nc4cccc(Br)c4)c3cc2N1CCCN1CCOCC1

>  <MPO_Hit_Score>  (75) 
0.52059999999999995

>  <Tanimoto_to_Gefitinib>  (75) 
0.41860000000000003

>  <MolecularWeight>  (75) 
498.38

>  <LogP>  (75) 
3.5800000000000001

>  <TPSA>  (75) 
79.819999999999993

$$$$
CHEMBL214478
     RDKit          2D

 32 35  0  0  0  0  0  0  0  0999 V2000
   -4.2492   -4.3701    0.0000 C   0  0  0  0  0  0  0  0  0  0  0  0
   -2.8686   -4.9564    0.0000 O   0  0  0  0  0  0  0  0  0  0  0  0
   -1.6705   -4.0538    0.0000 C   0  0  0  0  0  0  0  0  0  0  0  0
   -0.2898   -4.6401    0.0000 C   0  0  0  0  0  0  0  0  0  0  0  0
    0.9083   -3.7375    0.0000 C   0  0  0  0  0  0  0  0  0  0  0  0
    2.2889   -4.3238    0.0000 N   0  0  0  0  0  0  0  0  0  0  0  0
    3.4870   -3.4213    0.0000 C   0  0  0  0  0  0  0  0  0  0  0  0
    3.3044   -1.9324    0.0000 N   0  0  0  0  0  0  0  0  0  0  0  0
    1.9238   -1.3461    0.0000 C   0  0  0  0  0  0  0  0  0  0  0  0
    1.7412    0.1427    0.0000 N   0  0  0  0  0  0  0  0  0  0  0  0
    2.9392    1.0453    0.0000 C   0  0  0  0  0  0  0  0  0  0  0  0
    4.3199    0.4590    0.0000 C   0  0  0  0  0  0  0  0  0  0  0  0
    5.5180    1.3615    0.0000 C   0  0  0  0  0  0  0  0  0  0  0  0
    6.8987    0.7752    0.0000 Cl  0  0  0  0  0  0  0  0  0  0  0  0
    5.3354    2.8504    0.0000 C   0  0  0  0  0  0  0  0  0  0  0  0
    3.9547    3.4367    0.0000 C   0  0  0  0  0  0  0  0  0  0  0  0
    2.7566    2.5341    0.0000 C   0  0  0  0  0  0  0  0  0  0  0  0
    1.3760    3.1204    0.0000 F   0  0  0  0  0  0  0  0  0  0  0  0
    0.7257   -2.2487    0.0000 C   0  0  0  0  0  0  0  0  0  0  0  0
   -0.6550   -1.6624    0.0000 C   0  0  0  0  0  0  0  0  0  0  0  0
   -1.8531   -2.5650    0.0000 C   0  0  0  0  0  0  0  0  0  0  0  0
   -3.2338   -1.9787    0.0000 O   0  0  0  0  0  0  0  0  0  0  0  0
   -3.4163   -0.4898    0.0000 C   0  0  0  0  0  0  0  0  0  0  0  0
   -2.2183    0.4127    0.0000 C   0  0  0  0  0  0  0  0  0  0  0  0
   -2.4009    1.9016    0.0000 C   0  0  0  0  0  0  0  0  0  0  0  0
   -3.7815    2.4879    0.0000 N   0  0  0  0  0  0  0  0  0  0  0  0
   -3.9641    3.9767    0.0000 C   0  0  0  0  0  0  0  0  0  0  0  0
   -2.7661    4.8793    0.0000 C   0  0  0  0  0  0  0  0  0  0  0  0
   -1.3854    4.2930    0.0000 O   0  0  0  0  0  0  0  0  0  0  0  0
   -2.9487    6.3681    0.0000 N   0  0  0  0  0  0  0  0  0  0  0  0
   -4.9796    1.5853    0.0000 C   0  0  0  0  0  0  0  0  0  0  0  0
   -4.7970    0.0965    0.0000 C   0  0  0  0  0  0  0  0  0  0  0  0
  1  2  1  0
  2  3  1  0
  3  4  2  0
  4  5  1  0
  5  6  2  0
  6  7  1  0
  7  8  2  0
  8  9  1  0
  9 10  1  0
 10 11  1  0
 11 12  1  0
 12 13  2  0
 13 14  1  0
 13 15  1  0
 15 16  2  0
 16 17  1  0
 17 18  1  0
  9 19  2  0
 19 20  1  0
 20 21  2  0
 21 22  1  0
 22 23  1  0
 23 24  1  0
 24 25  1  0
 25 26  1  0
 26 27  1  0
 27 28  1  0
 28 29  2  0
 28 30  1  0
 26 31  1  0
 31 32  1  0
 21  3  1  0
 19  5  1  0
 17 11  2  0
 32 23  1  0
M  END
>  <ChEMBL_ID>  (76) 
CHEMBL214478

>  <SMILES>  (76) 
COc1cc2ncnc(Nc3cc(Cl)ccc3F)c2cc1OC1CCN(CC(N)=O)CC1

>  <MPO_Hit_Score>  (76) 
0.51659999999999995

>  <Tanimoto_to_Gefitinib>  (76) 
0.44190000000000002

>  <MolecularWeight>  (76) 
459.91000000000003

>  <LogP>  (76) 
3.5

>  <TPSA>  (76) 
102.59999999999999

$$$$
CHEMBL543904
     RDKit          2D

 27 29  0  0  0  0  0  0  0  0999 V2000
   -7.2800    1.3896    0.0000 C   0  0  0  0  0  0  0  0  0  0  0  0
   -6.6780    0.0157    0.0000 O   0  0  0  0  0  0  0  0  0  0  0  0
   -5.1872   -0.1499    0.0000 C   0  0  0  0  0  0  0  0  0  0  0  0
   -4.5852   -1.5238    0.0000 C   0  0  0  0  0  0  0  0  0  0  0  0
   -3.0943   -1.6894    0.0000 C   0  0  0  0  0  0  0  0  0  0  0  0
   -2.4923   -3.0633    0.0000 N   0  0  0  0  0  0  0  0  0  0  0  0
   -1.0015   -3.2289    0.0000 C   0  0  0  0  0  0  0  0  0  0  0  0
   -0.1127   -2.0206    0.0000 N   0  0  0  0  0  0  0  0  0  0  0  0
   -0.7147   -0.6467    0.0000 C   0  0  0  0  0  0  0  0  0  0  0  0
    0.1742    0.5616    0.0000 N   0  0  0  0  0  0  0  0  0  0  0  0
    1.6650    0.3959    0.0000 C   0  0  0  0  0  0  0  0  0  0  0  0
    2.2670   -0.9780    0.0000 C   0  0  0  0  0  0  0  0  0  0  0  0
    3.7578   -1.1436    0.0000 C   0  0  0  0  0  0  0  0  0  0  0  0
    4.3598   -2.5175    0.0000 O   0  0  0  0  0  0  0  0  0  0  0  0
    3.4710   -3.7258    0.0000 C   0  0  0  0  0  0  0  0  0  0  0  0
    4.6467    0.0647    0.0000 C   0  0  0  0  0  0  0  0  0  0  0  0
    6.1375   -0.1009    0.0000 O   0  0  0  0  0  0  0  0  0  0  0  0
    7.0263    1.1074    0.0000 C   0  0  0  0  0  0  0  0  0  0  0  0
    4.0447    1.4386    0.0000 C   0  0  0  0  0  0  0  0  0  0  0  0
    4.9335    2.6469    0.0000 O   0  0  0  0  0  0  0  0  0  0  0  0
    4.3315    4.0208    0.0000 C   0  0  0  0  0  0  0  0  0  0  0  0
    2.5538    1.6042    0.0000 C   0  0  0  0  0  0  0  0  0  0  0  0
   -2.2055   -0.4811    0.0000 C   0  0  0  0  0  0  0  0  0  0  0  0
   -2.8075    0.8928    0.0000 C   0  0  0  0  0  0  0  0  0  0  0  0
   -4.2983    1.0584    0.0000 C   0  0  0  0  0  0  0  0  0  0  0  0
   -4.9003    2.4323    0.0000 O   0  0  0  0  0  0  0  0  0  0  0  0
   -4.0115    3.6406    0.0000 C   0  0  0  0  0  0  0  0  0  0  0  0
  1  2  1  0
  2  3  1  0
  3  4  2  0
  4  5  1  0
  5  6  2  0
  6  7  1  0
  7  8  2  0
  8  9  1  0
  9 10  1  0
 10 11  1  0
 11 12  2  0
 12 13  1  0
 13 14  1  0
 14 15  1  0
 13 16  2  0
 16 17  1  0
 17 18  1  0
 16 19  1  0
 19 20  1  0
 20 21  1  0
 19 22  2  0
  9 23  2  0
 23 24  1  0
 24 25  2  0
 25 26  1  0
 26 27  1  0
 25  3  1  0
 23  5  1  0
 22 11  1  0
M  END
>  <ChEMBL_ID>  (77) 
CHEMBL543904

>  <SMILES>  (77) 
COc1cc2ncnc(Nc3cc(OC)c(OC)c(OC)c3)c2cc1OC

>  <MPO_Hit_Score>  (77) 
0.51600000000000001

>  <Tanimoto_to_Gefitinib>  (77) 
0.42420000000000002

>  <MolecularWeight>  (77) 
371.38999999999999

>  <LogP>  (77) 
3.4199999999999999

>  <TPSA>  (77) 
83.959999999999994

$$$$
CHEMBL218677
     RDKit          2D

 32 35  0  0  0  0  0  0  0  0999 V2000
   -6.1197   -0.1793    0.0000 C   0  0  0  0  0  0  0  0  0  0  0  0
   -5.5733   -1.5762    0.0000 O   0  0  0  0  0  0  0  0  0  0  0  0
   -4.0903   -1.8014    0.0000 C   0  0  0  0  0  0  0  0  0  0  0  0
   -3.5438   -3.1983    0.0000 C   0  0  0  0  0  0  0  0  0  0  0  0
   -2.0608   -3.4235    0.0000 C   0  0  0  0  0  0  0  0  0  0  0  0
   -1.5143   -4.8205    0.0000 N   0  0  0  0  0  0  0  0  0  0  0  0
   -0.0313   -5.0457    0.0000 C   0  0  0  0  0  0  0  0  0  0  0  0
    0.9052   -3.8740    0.0000 N   0  0  0  0  0  0  0  0  0  0  0  0
    0.3587   -2.4770    0.0000 C   0  0  0  0  0  0  0  0  0  0  0  0
    1.2953   -1.3053    0.0000 N   0  0  0  0  0  0  0  0  0  0  0  0
    2.7783   -1.5305    0.0000 C   0  0  0  0  0  0  0  0  0  0  0  0
    3.3247   -2.9274    0.0000 C   0  0  0  0  0  0  0  0  0  0  0  0
    4.8077   -3.1526    0.0000 C   0  0  0  0  0  0  0  0  0  0  0  0
    5.7443   -1.9809    0.0000 C   0  0  0  0  0  0  0  0  0  0  0  0
    5.1978   -0.5840    0.0000 C   0  0  0  0  0  0  0  0  0  0  0  0
    6.1343    0.5877    0.0000 Cl  0  0  0  0  0  0  0  0  0  0  0  0
    3.7148   -0.3588    0.0000 C   0  0  0  0  0  0  0  0  0  0  0  0
    3.1683    1.0381    0.0000 F   0  0  0  0  0  0  0  0  0  0  0  0
   -1.1243   -2.2518    0.0000 C   0  0  0  0  0  0  0  0  0  0  0  0
   -1.6707   -0.8549    0.0000 C   0  0  0  0  0  0  0  0  0  0  0  0
   -3.1537   -0.6297    0.0000 C   0  0  0  0  0  0  0  0  0  0  0  0
   -3.7002    0.7672    0.0000 O   0  0  0  0  0  0  0  0  0  0  0  0
   -2.7637    1.9389    0.0000 C   0  0  0  0  0  0  0  0  0  0  0  0
   -1.2807    1.7137    0.0000 C   0  0  0  0  0  0  0  0  0  0  0  0
   -0.3441    2.8854    0.0000 C   0  0  0  0  0  0  0  0  0  0  0  0
   -0.8906    4.2823    0.0000 N   0  0  0  0  0  0  0  0  0  0  0  0
    0.0459    5.4541    0.0000 C   0  0  0  0  0  0  0  0  0  0  0  0
    1.5289    5.2288    0.0000 C   0  0  0  0  0  0  0  0  0  0  0  0
    2.0754    3.8319    0.0000 O   0  0  0  0  0  0  0  0  0  0  0  0
    2.4655    6.4006    0.0000 N   0  0  0  0  0  0  0  0  0  0  0  0
   -2.3736    4.5075    0.0000 C   0  0  0  0  0  0  0  0  0  0  0  0
   -3.3101    3.3358    0.0000 C   0  0  0  0  0  0  0  0  0  0  0  0
  1  2  1  0
  2  3  1  0
  3  4  2  0
  4  5  1  0
  5  6  2  0
  6  7  1  0
  7  8  2  0
  8  9  1  0
  9 10  1  0
 10 11  1  0
 11 12  2  0
 12 13  1  0
 13 14  2  0
 14 15  1  0
 15 16  1  0
 15 17  2  0
 17 18  1  0
  9 19  2  0
 19 20  1  0
 20 21  2  0
 21 22  1  0
 22 23  1  0
 23 24  1  0
 24 25  1  0
 25 26  1  0
 26 27  1  0
 27 28  1  0
 28 29  2  0
 28 30  1  0
 26 31  1  0
 31 32  1  0
 21  3  1  0
 19  5  1  0
 17 11  1  0
 32 23  1  0
M  END
>  <ChEMBL_ID>  (78) 
CHEMBL218677

>  <SMILES>  (78) 
COc1cc2ncnc(Nc3cccc(Cl)c3F)c2cc1OC1CCN(CC(N)=O)CC1

>  <MPO_Hit_Score>  (78) 
0.51149999999999995

>  <Tanimoto_to_Gefitinib>  (78) 
0.43180000000000002

>  <MolecularWeight>  (78) 
459.91000000000003

>  <LogP>  (78) 
3.5

>  <TPSA>  (78) 
102.59999999999999

$$$$
CHEMBL38199
     RDKit          2D

 29 33  0  0  0  0  0  0  0  0999 V2000
   -7.9808   -2.3335    0.0000 Br  0  0  0  0  0  0  0  0  0  0  0  0
   -7.4518   -0.9299    0.0000 C   0  0  0  0  0  0  0  0  0  0  0  0
   -8.4029    0.2301    0.0000 C   0  0  0  0  0  0  0  0  0  0  0  0
   -7.8740    1.6337    0.0000 C   0  0  0  0  0  0  0  0  0  0  0  0
   -6.3939    1.8774    0.0000 C   0  0  0  0  0  0  0  0  0  0  0  0
   -5.4428    0.7175    0.0000 C   0  0  0  0  0  0  0  0  0  0  0  0
   -3.9627    0.9612    0.0000 N   0  0  0  0  0  0  0  0  0  0  0  0
   -3.0116   -0.1987    0.0000 C   0  0  0  0  0  0  0  0  0  0  0  0
   -3.5406   -1.6023    0.0000 N   0  0  0  0  0  0  0  0  0  0  0  0
   -2.5895   -2.7622    0.0000 C   0  0  0  0  0  0  0  0  0  0  0  0
   -1.1094   -2.5185    0.0000 N   0  0  0  0  0  0  0  0  0  0  0  0
   -0.5805   -1.1149    0.0000 C   0  0  0  0  0  0  0  0  0  0  0  0
    0.8996   -0.8711    0.0000 C   0  0  0  0  0  0  0  0  0  0  0  0
    1.4286    0.5325    0.0000 C   0  0  0  0  0  0  0  0  0  0  0  0
    0.4775    1.6924    0.0000 C   0  0  0  0  0  0  0  0  0  0  0  0
    1.2867    2.9554    0.0000 C   0  0  0  0  0  0  0  0  0  0  0  0
    2.7379    2.5761    0.0000 N   0  0  0  0  0  0  0  0  0  0  0  0
    2.8256    1.0786    0.0000 N   0  0  0  0  0  0  0  0  0  0  0  0
    4.0886    0.2694    0.0000 C   0  0  0  0  0  0  0  0  0  0  0  0
    5.4209    0.9586    0.0000 C   0  0  0  0  0  0  0  0  0  0  0  0
    6.6839    0.1493    0.0000 N   0  0  0  0  0  0  0  0  0  0  0  0
    6.6146   -1.3491    0.0000 C   0  0  0  0  0  0  0  0  0  0  0  0
    7.8776   -2.1583    0.0000 C   0  0  0  0  0  0  0  0  0  0  0  0
    9.2099   -1.4691    0.0000 O   0  0  0  0  0  0  0  0  0  0  0  0
    9.2792    0.0293    0.0000 C   0  0  0  0  0  0  0  0  0  0  0  0
    8.0162    0.8385    0.0000 C   0  0  0  0  0  0  0  0  0  0  0  0
   -1.0026    1.4487    0.0000 C   0  0  0  0  0  0  0  0  0  0  0  0
   -1.5316    0.0451    0.0000 C   0  0  0  0  0  0  0  0  0  0  0  0
   -5.9718   -0.6861    0.0000 C   0  0  0  0  0  0  0  0  0  0  0  0
  1  2  1  0
  2  3  1  0
  3  4  2  0
  4  5  1  0
  5  6  2  0
  6  7  1  0
  7  8  1  0
  8  9  1  0
  9 10  2  0
 10 11  1  0
 11 12  2  0
 12 13  1  0
 13 14  2  0
 14 15  1  0
 15 16  1  0
 16 17  2  0
 17 18  1  0
 18 19  1  0
 19 20  1  0
 20 21  1  0
 21 22  1  0
 22 23  1  0
 23 24  1  0
 24 25  1  0
 25 26  1  0
 15 27  2  0
 27 28  1  0
  6 29  1  0
 29  2  2  0
 28  8  2  0
 28 12  1  0
 18 14  1  0
 26 21  1  0
M  END
>  <ChEMBL_ID>  (79) 
CHEMBL38199

>  <SMILES>  (79) 
Brc1cccc(Nc2ncnc3cc4c(cnn4CCN4CCOCC4)cc23)c1

>  <MPO_Hit_Score>  (79) 
0.51090000000000002

>  <Tanimoto_to_Gefitinib>  (79) 
0.41460000000000002

>  <MolecularWeight>  (79) 
453.33999999999997

>  <LogP>  (79) 
3.8199999999999998

>  <TPSA>  (79) 
68.099999999999994

$$$$
CHEMBL3814320
     RDKit          2D

 30 33  0  0  0  0  0  0  0  0999 V2000
    9.2128    0.0512    0.0000 Br  0  0  0  0  0  0  0  0  0  0  0  0
    8.0826   -0.9350    0.0000 C   0  0  0  0  0  0  0  0  0  0  0  0
    8.3716   -2.4069    0.0000 C   0  0  0  0  0  0  0  0  0  0  0  0
    7.2415   -3.3932    0.0000 C   0  0  0  0  0  0  0  0  0  0  0  0
    5.8222   -2.9076    0.0000 C   0  0  0  0  0  0  0  0  0  0  0  0
    5.5332   -1.4357    0.0000 C   0  0  0  0  0  0  0  0  0  0  0  0
    4.1140   -0.9501    0.0000 N   0  0  0  0  0  0  0  0  0  0  0  0
    3.8249    0.5218    0.0000 C   0  0  0  0  0  0  0  0  0  0  0  0
    4.9551    1.5081    0.0000 N   0  0  0  0  0  0  0  0  0  0  0  0
    4.6661    2.9800    0.0000 C   0  0  0  0  0  0  0  0  0  0  0  0
    3.2469    3.4656    0.0000 N   0  0  0  0  0  0  0  0  0  0  0  0
    2.1167    2.4793    0.0000 C   0  0  0  0  0  0  0  0  0  0  0  0
    0.6975    2.9650    0.0000 C   0  0  0  0  0  0  0  0  0  0  0  0
   -0.4327    1.9787    0.0000 C   0  0  0  0  0  0  0  0  0  0  0  0
   -0.1437    0.5068    0.0000 C   0  0  0  0  0  0  0  0  0  0  0  0
   -1.2738   -0.4794    0.0000 N   0  0  0  0  0  0  0  0  0  0  0  0
   -2.6930    0.0062    0.0000 C   0  0  0  0  0  0  0  0  0  0  0  0
   -2.9821    1.4781    0.0000 O   0  0  0  0  0  0  0  0  0  0  0  0
   -3.8232   -0.9801    0.0000 N   0  0  0  0  0  0  0  0  0  0  0  0
   -5.2424   -0.4945    0.0000 C   0  0  0  0  0  0  0  0  0  0  0  0
   -6.3726   -1.4807    0.0000 C   0  0  0  0  0  0  0  0  0  0  0  0
   -7.7918   -0.9951    0.0000 N   0  0  0  0  0  0  0  0  0  0  0  0
   -8.0809    0.4768    0.0000 C   0  0  0  0  0  0  0  0  0  0  0  0
   -9.5001    0.9624    0.0000 C   0  0  0  0  0  0  0  0  0  0  0  0
  -10.6302   -0.0239    0.0000 O   0  0  0  0  0  0  0  0  0  0  0  0
  -10.3412   -1.4957    0.0000 C   0  0  0  0  0  0  0  0  0  0  0  0
   -8.9220   -1.9814    0.0000 C   0  0  0  0  0  0  0  0  0  0  0  0
    1.2756    0.0212    0.0000 C   0  0  0  0  0  0  0  0  0  0  0  0
    2.4057    1.0075    0.0000 C   0  0  0  0  0  0  0  0  0  0  0  0
    6.6634   -0.4494    0.0000 C   0  0  0  0  0  0  0  0  0  0  0  0
  1  2  1  0
  2  3  1  0
  3  4  2  0
  4  5  1  0
  5  6  2  0
  6  7  1  0
  7  8  1  0
  8  9  1  0
  9 10  2  0
 10 11  1  0
 11 12  2  0
 12 13  1  0
 13 14  2  0
 14 15  1  0
 15 16  1  0
 16 17  1  0
 17 18  2  0
 17 19  1  0
 19 20  1  0
 20 21  1  0
 21 22  1  0
 22 23  1  0
 23 24  1  0
 24 25  1  0
 25 26  1  0
 26 27  1  0
 15 28  2  0
 28 29  1  0
  6 30  1  0
 30  2  2  0
 29  8  2  0
 29 12  1  0
 27 22  1  0
M  END
>  <ChEMBL_ID>  (80) 
CHEMBL3814320

>  <SMILES>  (80) 
O=C(NCCN1CCOCC1)Nc1ccc2ncnc(Nc3cccc(Br)c3)c2c1

>  <MPO_Hit_Score>  (80) 
0.5101

>  <Tanimoto_to_Gefitinib>  (80) 
0.40000000000000002

>  <MolecularWeight>  (80) 
471.36000000000001

>  <LogP>  (80) 
3.5899999999999999

>  <TPSA>  (80) 
91.409999999999997

$$$$
CHEMBL328106
     RDKit          2D

 22 24  0  0  0  0  0  0  0  0999 V2000
   -6.2634    1.0652    0.0000 C   0  0  0  0  0  0  0  0  0  0  0  0
   -5.5757   -0.2679    0.0000 O   0  0  0  0  0  0  0  0  0  0  0  0
   -4.0774   -0.3389    0.0000 C   0  0  0  0  0  0  0  0  0  0  0  0
   -3.3897   -1.6719    0.0000 C   0  0  0  0  0  0  0  0  0  0  0  0
   -1.8914   -1.7429    0.0000 C   0  0  0  0  0  0  0  0  0  0  0  0
   -1.2037   -3.0760    0.0000 N   0  0  0  0  0  0  0  0  0  0  0  0
    0.2946   -3.1470    0.0000 C   0  0  0  0  0  0  0  0  0  0  0  0
    1.1052   -1.8849    0.0000 N   0  0  0  0  0  0  0  0  0  0  0  0
    0.4175   -0.5518    0.0000 C   0  0  0  0  0  0  0  0  0  0  0  0
    1.2282    0.7103    0.0000 N   0  0  0  0  0  0  0  0  0  0  0  0
    2.7265    0.6393    0.0000 C   0  0  0  0  0  0  0  0  0  0  0  0
    3.4142   -0.6938    0.0000 C   0  0  0  0  0  0  0  0  0  0  0  0
    4.9125   -0.7647    0.0000 C   0  0  0  0  0  0  0  0  0  0  0  0
    5.7231    0.4974    0.0000 C   0  0  0  0  0  0  0  0  0  0  0  0
    7.2214    0.4264    0.0000 Br  0  0  0  0  0  0  0  0  0  0  0  0
    5.0354    1.8304    0.0000 C   0  0  0  0  0  0  0  0  0  0  0  0
    3.5371    1.9014    0.0000 C   0  0  0  0  0  0  0  0  0  0  0  0
   -1.0808   -0.4808    0.0000 C   0  0  0  0  0  0  0  0  0  0  0  0
   -1.7685    0.8523    0.0000 C   0  0  0  0  0  0  0  0  0  0  0  0
   -3.2668    0.9232    0.0000 C   0  0  0  0  0  0  0  0  0  0  0  0
   -3.9545    2.2563    0.0000 O   0  0  0  0  0  0  0  0  0  0  0  0
   -3.1438    3.5184    0.0000 C   0  0  0  0  0  0  0  0  0  0  0  0
  1  2  1  0
  2  3  1  0
  3  4  2  0
  4  5  1  0
  5  6  2  0
  6  7  1  0
  7  8  2  0
  8  9  1  0
  9 10  1  0
 10 11  1  0
 11 12  1  0
 12 13  2  0
 13 14  1  0
 14 15  1  0
 14 16  2  0
 16 17  1  0
  9 18  2  0
 18 19  1  0
 19 20  2  0
 20 21  1  0
 21 22  1  0
 20  3  1  0
 18  5  1  0
 17 11  2  0
M  END
>  <ChEMBL_ID>  (81) 
CHEMBL328106

>  <SMILES>  (81) 
COc1cc2ncnc(Nc3ccc(Br)cc3)c2cc1OC

>  <MPO_Hit_Score>  (81) 
0.50980000000000003

>  <Tanimoto_to_Gefitinib>  (81) 
0.46150000000000002

>  <MolecularWeight>  (81) 
360.20999999999998

>  <LogP>  (81) 
4.1500000000000004

>  <TPSA>  (81) 
56.270000000000003

$$$$
CHEMBL2064374
     RDKit          2D

 35 39  0  0  0  0  0  0  0  0999 V2000
   11.3478   -1.3549    0.0000 C   0  0  0  0  0  0  0  0  0  0  0  0
   10.1233   -2.2212    0.0000 C   0  0  0  0  0  0  0  0  0  0  0  0
    8.7607   -1.5939    0.0000 O   0  0  0  0  0  0  0  0  0  0  0  0
    7.5362   -2.4603    0.0000 C   0  0  0  0  0  0  0  0  0  0  0  0
    7.6742   -3.9539    0.0000 O   0  0  0  0  0  0  0  0  0  0  0  0
    6.1737   -1.8330    0.0000 C   0  0  0  0  0  0  0  0  0  0  0  0
    4.9492   -2.6993    0.0000 C   0  0  0  0  0  0  0  0  0  0  0  0
    3.5866   -2.0721    0.0000 C   0  0  0  0  0  0  0  0  0  0  0  0
    3.4486   -0.5784    0.0000 C   0  0  0  0  0  0  0  0  0  0  0  0
    2.0860    0.0489    0.0000 N   0  0  0  0  0  0  0  0  0  0  0  0
    1.9480    1.5425    0.0000 C   0  0  0  0  0  0  0  0  0  0  0  0
    3.1725    2.4088    0.0000 N   0  0  0  0  0  0  0  0  0  0  0  0
    3.0345    3.9025    0.0000 C   0  0  0  0  0  0  0  0  0  0  0  0
    1.6720    4.5298    0.0000 N   0  0  0  0  0  0  0  0  0  0  0  0
    0.4475    3.6634    0.0000 C   0  0  0  0  0  0  0  0  0  0  0  0
   -0.9151    4.2907    0.0000 C   0  0  0  0  0  0  0  0  0  0  0  0
   -2.1396    3.4243    0.0000 C   0  0  0  0  0  0  0  0  0  0  0  0
   -3.6028    3.7546    0.0000 O   0  0  0  0  0  0  0  0  0  0  0  0
   -4.3691    2.4651    0.0000 C   0  0  0  0  0  0  0  0  0  0  0  0
   -5.8627    2.3271    0.0000 O   0  0  0  0  0  0  0  0  0  0  0  0
   -3.3795    1.3379    0.0000 N   0  0  0  0  0  0  0  0  0  0  0  0
   -3.7097   -0.1253    0.0000 C   0  0  0  0  0  0  0  0  0  0  0  0
   -5.1420   -0.5709    0.0000 C   0  0  0  0  0  0  0  0  0  0  0  0
   -5.4723   -2.0340    0.0000 C   0  0  0  0  0  0  0  0  0  0  0  0
   -6.9046   -2.4796    0.0000 N   0  0  0  0  0  0  0  0  0  0  0  0
   -8.0066   -1.4620    0.0000 C   0  0  0  0  0  0  0  0  0  0  0  0
   -9.4389   -1.9075    0.0000 C   0  0  0  0  0  0  0  0  0  0  0  0
   -9.7692   -3.3707    0.0000 O   0  0  0  0  0  0  0  0  0  0  0  0
   -8.6672   -4.3883    0.0000 C   0  0  0  0  0  0  0  0  0  0  0  0
   -7.2349   -3.9428    0.0000 C   0  0  0  0  0  0  0  0  0  0  0  0
   -2.0016    1.9307    0.0000 C   0  0  0  0  0  0  0  0  0  0  0  0
   -0.6390    1.3034    0.0000 C   0  0  0  0  0  0  0  0  0  0  0  0
    0.5855    2.1698    0.0000 C   0  0  0  0  0  0  0  0  0  0  0  0
    4.6731    0.2879    0.0000 C   0  0  0  0  0  0  0  0  0  0  0  0
    6.0356   -0.3394    0.0000 C   0  0  0  0  0  0  0  0  0  0  0  0
  1  2  1  0
  2  3  1  0
  3  4  1  0
  4  5  2  0
  4  6  1  0
  6  7  1  0
  7  8  2  0
  8  9  1  0
  9 10  1  0
 10 11  1  0
 11 12  1  0
 12 13  2  0
 13 14  1  0
 14 15  2  0
 15 16  1  0
 16 17  2  0
 17 18  1  0
 18 19  1  0
 19 20  2  0
 19 21  1  0
 21 22  1  0
 22 23  1  0
 23 24  1  0
 24 25  1  0
 25 26  1  0
 26 27  1  0
 27 28  1  0
 28 29  1  0
 29 30  1  0
 21 31  1  0
 31 32  2  0
 32 33  1  0
  9 34  2  0
 34 35  1  0
 35  6  2  0
 33 11  2  0
 33 15  1  0
 31 17  1  0
 30 25  1  0
M  END
>  <ChEMBL_ID>  (82) 
CHEMBL2064374

>  <SMILES>  (82) 
CCOC(=O)c1ccc(Nc2ncnc3cc4oc(=O)n(CCCN5CCOCC5)c4cc23)cc1

>  <MPO_Hit_Score>  (82) 
0.50949999999999995

>  <Tanimoto_to_Gefitinib>  (82) 
0.42699999999999999

>  <MolecularWeight>  (82) 
477.51999999999998

>  <LogP>  (82) 
3.1800000000000002

>  <TPSA>  (82) 
111.72

$$$$
CHEMBL3092310
     RDKit          2D

 37 41  0  0  0  0  0  0  0  0999 V2000
   10.1817   -2.6741    0.0000 F   0  0  0  0  0  0  0  0  0  0  0  0
    8.7245   -2.3185    0.0000 C   0  0  0  0  0  0  0  0  0  0  0  0
    7.6879   -3.4027    0.0000 C   0  0  0  0  0  0  0  0  0  0  0  0
    6.2307   -3.0472    0.0000 C   0  0  0  0  0  0  0  0  0  0  0  0
    5.8100   -1.6074    0.0000 C   0  0  0  0  0  0  0  0  0  0  0  0
    4.3527   -1.2519    0.0000 N   0  0  0  0  0  0  0  0  0  0  0  0
    3.9320    0.1879    0.0000 C   0  0  0  0  0  0  0  0  0  0  0  0
    4.9686    1.2722    0.0000 N   0  0  0  0  0  0  0  0  0  0  0  0
    4.5478    2.7120    0.0000 C   0  0  0  0  0  0  0  0  0  0  0  0
    3.0906    3.0675    0.0000 N   0  0  0  0  0  0  0  0  0  0  0  0
    2.0540    1.9833    0.0000 C   0  0  0  0  0  0  0  0  0  0  0  0
    0.5968    2.3388    0.0000 C   0  0  0  0  0  0  0  0  0  0  0  0
   -0.4397    1.2546    0.0000 C   0  0  0  0  0  0  0  0  0  0  0  0
   -1.8970    1.6101    0.0000 O   0  0  0  0  0  0  0  0  0  0  0  0
   -2.3177    3.0499    0.0000 C   0  0  0  0  0  0  0  0  0  0  0  0
   -3.7298    3.5559    0.0000 C   0  0  0  0  0  0  0  0  0  0  0  0
   -3.6850    5.0552    0.0000 C   0  0  0  0  0  0  0  0  0  0  0  0
   -2.2452    5.4759    0.0000 O   0  0  0  0  0  0  0  0  0  0  0  0
   -1.4002    4.2366    0.0000 C   0  0  0  0  0  0  0  0  0  0  0  0
   -0.0190   -0.1852    0.0000 C   0  0  0  0  0  0  0  0  0  0  0  0
   -1.0556   -1.2694    0.0000 N   0  0  0  0  0  0  0  0  0  0  0  0
   -2.5128   -0.9139    0.0000 C   0  0  0  0  0  0  0  0  0  0  0  0
   -2.9335    0.5259    0.0000 O   0  0  0  0  0  0  0  0  0  0  0  0
   -3.5494   -1.9981    0.0000 N   0  0  0  0  0  0  0  0  0  0  0  0
   -5.0066   -1.6426    0.0000 C   0  0  0  0  0  0  0  0  0  0  0  0
   -6.0432   -2.7268    0.0000 C   0  0  0  0  0  0  0  0  0  0  0  0
   -7.5004   -2.3713    0.0000 N   0  0  0  0  0  0  0  0  0  0  0  0
   -7.9211   -0.9315    0.0000 C   0  0  0  0  0  0  0  0  0  0  0  0
   -9.3784   -0.5759    0.0000 C   0  0  0  0  0  0  0  0  0  0  0  0
  -10.4149   -1.6602    0.0000 O   0  0  0  0  0  0  0  0  0  0  0  0
   -9.9942   -3.1000    0.0000 C   0  0  0  0  0  0  0  0  0  0  0  0
   -8.5370   -3.4555    0.0000 C   0  0  0  0  0  0  0  0  0  0  0  0
    1.4382   -0.5408    0.0000 C   0  0  0  0  0  0  0  0  0  0  0  0
    2.4748    0.5435    0.0000 C   0  0  0  0  0  0  0  0  0  0  0  0
    6.8465   -0.5232    0.0000 C   0  0  0  0  0  0  0  0  0  0  0  0
    8.3038   -0.8787    0.0000 C   0  0  0  0  0  0  0  0  0  0  0  0
    9.3403    0.2055    0.0000 Cl  0  0  0  0  0  0  0  0  0  0  0  0
  1  2  1  0
  2  3  1  0
  3  4  2  0
  4  5  1  0
  5  6  1  0
  6  7  1  0
  7  8  1  0
  8  9  2  0
  9 10  1  0
 10 11  2  0
 11 12  1  0
 12 13  2  0
 13 14  1  0
 15 14  1  1
 15 16  1  0
 16 17  1  0
 17 18  1  0
 18 19  1  0
 13 20  1  0
 20 21  1  0
 21 22  1  0
 22 23  2  0
 22 24  1  0
 24 25  1  0
 25 26  1  0
 26 27  1  0
 27 28  1  0
 28 29  1  0
 29 30  1  0
 30 31  1  0
 31 32  1  0
 20 33  2  0
 33 34  1  0
  5 35  2  0
 35 36  1  0
 36 37  1  0
 36  2  2  0
 34  7  2  0
 34 11  1  0
 19 15  1  0
 32 27  1  0
M  END
>  <ChEMBL_ID>  (83) 
CHEMBL3092310

>  <SMILES>  (83) 
O=C(NCCN1CCOCC1)Nc1cc2c(Nc3ccc(F)c(Cl)c3)ncnc2cc1O[C@H]1CCOC1

>  <MPO_Hit_Score>  (83) 
0.50880000000000003

>  <Tanimoto_to_Gefitinib>  (83) 
0.55169999999999997

>  <MolecularWeight>  (83) 
530.99000000000001

>  <LogP>  (83) 
3.79

>  <TPSA>  (83) 
109.87

$$$$
CHEMBL60826
     RDKit          2D

 31 34  0  0  0  0  0  0  0  0999 V2000
   -3.5522   -4.1289    0.0000 C   0  0  0  0  0  0  0  0  0  0  0  0
   -2.1741   -4.7213    0.0000 O   0  0  0  0  0  0  0  0  0  0  0  0
   -0.9721   -3.8240    0.0000 C   0  0  0  0  0  0  0  0  0  0  0  0
    0.4060   -4.4164    0.0000 C   0  0  0  0  0  0  0  0  0  0  0  0
    1.6080   -3.5192    0.0000 C   0  0  0  0  0  0  0  0  0  0  0  0
    2.9861   -4.1115    0.0000 N   0  0  0  0  0  0  0  0  0  0  0  0
    4.1882   -3.2143    0.0000 C   0  0  0  0  0  0  0  0  0  0  0  0
    4.0121   -1.7246    0.0000 N   0  0  0  0  0  0  0  0  0  0  0  0
    2.6340   -1.1323    0.0000 C   0  0  0  0  0  0  0  0  0  0  0  0
    2.4580    0.3574    0.0000 N   0  0  0  0  0  0  0  0  0  0  0  0
    3.6601    1.2546    0.0000 C   0  0  0  0  0  0  0  0  0  0  0  0
    5.0381    0.6623    0.0000 C   0  0  0  0  0  0  0  0  0  0  0  0
    6.2402    1.5595    0.0000 C   0  0  0  0  0  0  0  0  0  0  0  0
    6.0642    3.0492    0.0000 C   0  0  0  0  0  0  0  0  0  0  0  0
    7.2662    3.9464    0.0000 F   0  0  0  0  0  0  0  0  0  0  0  0
    4.6861    3.6415    0.0000 C   0  0  0  0  0  0  0  0  0  0  0  0
    4.5101    5.1312    0.0000 Cl  0  0  0  0  0  0  0  0  0  0  0  0
    3.4840    2.7443    0.0000 C   0  0  0  0  0  0  0  0  0  0  0  0
    1.4320   -2.0295    0.0000 C   0  0  0  0  0  0  0  0  0  0  0  0
    0.0539   -1.4371    0.0000 C   0  0  0  0  0  0  0  0  0  0  0  0
   -1.1481   -2.3344    0.0000 C   0  0  0  0  0  0  0  0  0  0  0  0
   -2.5262   -1.7420    0.0000 O   0  0  0  0  0  0  0  0  0  0  0  0
   -2.7022   -0.2524    0.0000 C   0  0  0  0  0  0  0  0  0  0  0  0
   -4.0803    0.3400    0.0000 C   0  0  0  0  0  0  0  0  0  0  0  0
   -5.2824   -0.5573    0.0000 O   0  0  0  0  0  0  0  0  0  0  0  0
   -4.2563    1.8296    0.0000 C   0  0  0  0  0  0  0  0  0  0  0  0
   -5.6344    2.4220    0.0000 N   0  0  0  0  0  0  0  0  0  0  0  0
   -6.9237    1.6553    0.0000 C   0  0  0  0  0  0  0  0  0  0  0  0
   -8.0512    2.6445    0.0000 C   0  0  0  0  0  0  0  0  0  0  0  0
   -7.4589    4.0226    0.0000 N   0  0  0  0  0  0  0  0  0  0  0  0
   -5.9652    3.8850    0.0000 C   0  0  0  0  0  0  0  0  0  0  0  0
  1  2  1  0
  2  3  1  0
  3  4  2  0
  4  5  1  0
  5  6  2  0
  6  7  1  0
  7  8  2  0
  8  9  1  0
  9 10  1  0
 10 11  1  0
 11 12  1  0
 12 13  2  0
 13 14  1  0
 14 15  1  0
 14 16  2  0
 16 17  1  0
 16 18  1  0
  9 19  2  0
 19 20  1  0
 20 21  2  0
 21 22  1  0
 22 23  1  0
 23 24  1  0
 24 25  1  0
 24 26  1  0
 26 27  1  0
 27 28  1  0
 28 29  2  0
 29 30  1  0
 30 31  2  0
 21  3  1  0
 19  5  1  0
 18 11  2  0
 31 27  1  0
M  END
>  <ChEMBL_ID>  (84) 
CHEMBL60826

>  <SMILES>  (84) 
COc1cc2ncnc(Nc3ccc(F)c(Cl)c3)c2cc1OCC(O)Cn1ccnc1

>  <MPO_Hit_Score>  (84) 
0.50860000000000005

>  <Tanimoto_to_Gefitinib>  (84) 
0.55700000000000005

>  <MolecularWeight>  (84) 
443.87

>  <LogP>  (84) 
3.8100000000000001

>  <TPSA>  (84) 
94.319999999999993

$$$$
CHEMBL2064382
     RDKit          2D

 33 37  0  0  0  0  0  0  0  0999 V2000
    9.6065   -4.7487    0.0000 C   0  0  0  0  0  0  0  0  0  0  0  0
    8.2539   -4.1003    0.0000 C   0  0  0  0  0  0  0  0  0  0  0  0
    8.1390   -2.6047    0.0000 O   0  0  0  0  0  0  0  0  0  0  0  0
    6.7864   -1.9564    0.0000 C   0  0  0  0  0  0  0  0  0  0  0  0
    5.5486   -2.8036    0.0000 C   0  0  0  0  0  0  0  0  0  0  0  0
    4.1959   -2.1553    0.0000 C   0  0  0  0  0  0  0  0  0  0  0  0
    4.0811   -0.6597    0.0000 C   0  0  0  0  0  0  0  0  0  0  0  0
    2.7285   -0.0113    0.0000 N   0  0  0  0  0  0  0  0  0  0  0  0
    2.6136    1.4843    0.0000 C   0  0  0  0  0  0  0  0  0  0  0  0
    3.8514    2.3315    0.0000 N   0  0  0  0  0  0  0  0  0  0  0  0
    3.7366    3.8271    0.0000 C   0  0  0  0  0  0  0  0  0  0  0  0
    2.3840    4.4755    0.0000 N   0  0  0  0  0  0  0  0  0  0  0  0
    1.1462    3.6282    0.0000 C   0  0  0  0  0  0  0  0  0  0  0  0
   -0.2065    4.2766    0.0000 C   0  0  0  0  0  0  0  0  0  0  0  0
   -1.4443    3.4293    0.0000 C   0  0  0  0  0  0  0  0  0  0  0  0
   -2.9022    3.7823    0.0000 O   0  0  0  0  0  0  0  0  0  0  0  0
   -3.6884    2.5048    0.0000 C   0  0  0  0  0  0  0  0  0  0  0  0
   -5.1840    2.3900    0.0000 O   0  0  0  0  0  0  0  0  0  0  0  0
   -2.7164    1.3623    0.0000 N   0  0  0  0  0  0  0  0  0  0  0  0
   -3.0693   -0.0955    0.0000 C   0  0  0  0  0  0  0  0  0  0  0  0
   -4.5084   -0.5188    0.0000 C   0  0  0  0  0  0  0  0  0  0  0  0
   -4.8613   -1.9767    0.0000 C   0  0  0  0  0  0  0  0  0  0  0  0
   -6.3004   -2.4000    0.0000 N   0  0  0  0  0  0  0  0  0  0  0  0
   -7.3864   -1.3654    0.0000 C   0  0  0  0  0  0  0  0  0  0  0  0
   -8.8255   -1.7886    0.0000 C   0  0  0  0  0  0  0  0  0  0  0  0
   -9.1784   -3.2465    0.0000 O   0  0  0  0  0  0  0  0  0  0  0  0
   -8.0923   -4.2811    0.0000 C   0  0  0  0  0  0  0  0  0  0  0  0
   -6.6533   -3.8579    0.0000 C   0  0  0  0  0  0  0  0  0  0  0  0
   -1.3295    1.9337    0.0000 C   0  0  0  0  0  0  0  0  0  0  0  0
    0.0232    1.2854    0.0000 C   0  0  0  0  0  0  0  0  0  0  0  0
    1.2610    2.1326    0.0000 C   0  0  0  0  0  0  0  0  0  0  0  0
    5.3189    0.1876    0.0000 C   0  0  0  0  0  0  0  0  0  0  0  0
    6.6716   -0.4608    0.0000 C   0  0  0  0  0  0  0  0  0  0  0  0
  1  2  1  0
  2  3  1  0
  3  4  1  0
  4  5  1  0
  5  6  2  0
  6  7  1  0
  7  8  1  0
  8  9  1  0
  9 10  1  0
 10 11  2  0
 11 12  1  0
 12 13  2  0
 13 14  1  0
 14 15  2  0
 15 16  1  0
 16 17  1  0
 17 18  2  0
 17 19  1  0
 19 20  1  0
 20 21  1  0
 21 22  1  0
 22 23  1  0
 23 24  1  0
 24 25  1  0
 25 26  1  0
 26 27  1  0
 27 28  1  0
 19 29  1  0
 29 30  2  0
 30 31  1  0
  7 32  2  0
 32 33  1  0
 33  4  2  0
 31  9  2  0
 31 13  1  0
 29 15  1  0
 28 23  1  0
M  END
>  <ChEMBL_ID>  (85) 
CHEMBL2064382

>  <SMILES>  (85) 
CCOc1ccc(Nc2ncnc3cc4oc(=O)n(CCCN5CCOCC5)c4cc23)cc1

>  <MPO_Hit_Score>  (85) 
0.50700000000000001

>  <Tanimoto_to_Gefitinib>  (85) 
0.45240000000000002

>  <MolecularWeight>  (85) 
449.50999999999999

>  <LogP>  (85) 
3.3999999999999999

>  <TPSA>  (85) 
94.650000000000006

$$$$
CHEMBL276154
     RDKit          2D

 29 32  0  0  0  0  0  0  0  0999 V2000
   -5.9074   -1.3882    0.0000 C   0  0  0  0  0  0  0  0  0  0  0  0
   -4.9636   -2.5540    0.0000 O   0  0  0  0  0  0  0  0  0  0  0  0
   -3.4820   -2.3196    0.0000 C   0  0  0  0  0  0  0  0  0  0  0  0
   -2.5382   -3.4855    0.0000 C   0  0  0  0  0  0  0  0  0  0  0  0
   -1.0566   -3.2511    0.0000 C   0  0  0  0  0  0  0  0  0  0  0  0
   -0.1128   -4.4170    0.0000 N   0  0  0  0  0  0  0  0  0  0  0  0
    1.3687   -4.1825    0.0000 C   0  0  0  0  0  0  0  0  0  0  0  0
    1.9065   -2.7823    0.0000 N   0  0  0  0  0  0  0  0  0  0  0  0
    0.9627   -1.6164    0.0000 C   0  0  0  0  0  0  0  0  0  0  0  0
    1.5005   -0.2161    0.0000 N   0  0  0  0  0  0  0  0  0  0  0  0
    2.9821    0.0183    0.0000 C   0  0  0  0  0  0  0  0  0  0  0  0
    3.9258   -1.1476    0.0000 C   0  0  0  0  0  0  0  0  0  0  0  0
    5.4074   -0.9132    0.0000 C   0  0  0  0  0  0  0  0  0  0  0  0
    5.9452    0.4871    0.0000 C   0  0  0  0  0  0  0  0  0  0  0  0
    7.4268    0.7215    0.0000 F   0  0  0  0  0  0  0  0  0  0  0  0
    5.0014    1.6530    0.0000 C   0  0  0  0  0  0  0  0  0  0  0  0
    5.5392    3.0533    0.0000 Cl  0  0  0  0  0  0  0  0  0  0  0  0
    3.5198    1.4186    0.0000 C   0  0  0  0  0  0  0  0  0  0  0  0
   -0.5189   -1.8508    0.0000 C   0  0  0  0  0  0  0  0  0  0  0  0
   -1.4627   -0.6849    0.0000 C   0  0  0  0  0  0  0  0  0  0  0  0
   -2.9442   -0.9194    0.0000 C   0  0  0  0  0  0  0  0  0  0  0  0
   -3.8880    0.2465    0.0000 O   0  0  0  0  0  0  0  0  0  0  0  0
   -3.3502    1.6468    0.0000 C   0  0  0  0  0  0  0  0  0  0  0  0
   -1.8687    1.8812    0.0000 C   0  0  0  0  0  0  0  0  0  0  0  0
   -1.3309    3.2815    0.0000 C   0  0  0  0  0  0  0  0  0  0  0  0
   -2.2747    4.4474    0.0000 N   0  0  0  0  0  0  0  0  0  0  0  0
   -1.7369    5.8477    0.0000 C   0  0  0  0  0  0  0  0  0  0  0  0
   -3.7563    4.2130    0.0000 C   0  0  0  0  0  0  0  0  0  0  0  0
   -4.2940    2.8127    0.0000 C   0  0  0  0  0  0  0  0  0  0  0  0
  1  2  1  0
  2  3  1  0
  3  4  2  0
  4  5  1  0
  5  6  2  0
  6  7  1  0
  7  8  2  0
  8  9  1  0
  9 10  1  0
 10 11  1  0
 11 12  1  0
 12 13  2  0
 13 14  1  0
 14 15  1  0
 14 16  2  0
 16 17  1  0
 16 18  1  0
  9 19  2  0
 19 20  1  0
 20 21  2  0
 21 22  1  0
 22 23  1  0
 23 24  1  0
 24 25  1  0
 25 26  1  0
 26 27  1  0
 26 28  1  0
 28 29  1  0
 21  3  1  0
 19  5  1  0
 18 11  2  0
 29 23  1  0
M  END
>  <ChEMBL_ID>  (86) 
CHEMBL276154

>  <SMILES>  (86) 
COc1cc2ncnc(Nc3ccc(F)c(Cl)c3)c2cc1OC1CCN(C)CC1

>  <MPO_Hit_Score>  (86) 
0.50600000000000001

>  <Tanimoto_to_Gefitinib>  (86) 
0.63380000000000003

>  <MolecularWeight>  (86) 
416.88

>  <LogP>  (86) 
4.6500000000000004

>  <TPSA>  (86) 
59.509999999999998

$$$$
CHEMBL3092321
     RDKit          2D

 35 39  0  0  0  0  0  0  0  0999 V2000
   -7.4943   -5.3049    0.0000 C   0  0  0  0  0  0  0  0  0  0  0  0
   -6.4876   -4.1930    0.0000 N   0  0  0  0  0  0  0  0  0  0  0  0
   -6.9471   -2.7651    0.0000 C   0  0  0  0  0  0  0  0  0  0  0  0
   -5.9403   -1.6532    0.0000 C   0  0  0  0  0  0  0  0  0  0  0  0
   -4.4740   -1.9691    0.0000 N   0  0  0  0  0  0  0  0  0  0  0  0
   -4.0144   -3.3970    0.0000 C   0  0  0  0  0  0  0  0  0  0  0  0
   -5.0212   -4.5089    0.0000 C   0  0  0  0  0  0  0  0  0  0  0  0
   -3.4672   -0.8572    0.0000 C   0  0  0  0  0  0  0  0  0  0  0  0
   -3.9267    0.5707    0.0000 O   0  0  0  0  0  0  0  0  0  0  0  0
   -2.0008   -1.1731    0.0000 N   0  0  0  0  0  0  0  0  0  0  0  0
   -0.9941   -0.0612    0.0000 C   0  0  0  0  0  0  0  0  0  0  0  0
    0.4723   -0.3771    0.0000 C   0  0  0  0  0  0  0  0  0  0  0  0
    1.4791    0.7348    0.0000 C   0  0  0  0  0  0  0  0  0  0  0  0
    2.9454    0.4188    0.0000 C   0  0  0  0  0  0  0  0  0  0  0  0
    3.4050   -1.0090    0.0000 N   0  0  0  0  0  0  0  0  0  0  0  0
    4.8713   -1.3250    0.0000 C   0  0  0  0  0  0  0  0  0  0  0  0
    5.3309   -2.7528    0.0000 C   0  0  0  0  0  0  0  0  0  0  0  0
    6.7973   -3.0688    0.0000 C   0  0  0  0  0  0  0  0  0  0  0  0
    7.8040   -1.9569    0.0000 C   0  0  0  0  0  0  0  0  0  0  0  0
    9.2704   -2.2728    0.0000 F   0  0  0  0  0  0  0  0  0  0  0  0
    7.3445   -0.5290    0.0000 C   0  0  0  0  0  0  0  0  0  0  0  0
    8.3513    0.5829    0.0000 Cl  0  0  0  0  0  0  0  0  0  0  0  0
    5.8781   -0.2131    0.0000 C   0  0  0  0  0  0  0  0  0  0  0  0
    3.9522    1.5308    0.0000 N   0  0  0  0  0  0  0  0  0  0  0  0
    3.4927    2.9586    0.0000 C   0  0  0  0  0  0  0  0  0  0  0  0
    2.0263    3.2746    0.0000 N   0  0  0  0  0  0  0  0  0  0  0  0
    1.0195    2.1626    0.0000 C   0  0  0  0  0  0  0  0  0  0  0  0
   -0.4468    2.4786    0.0000 C   0  0  0  0  0  0  0  0  0  0  0  0
   -1.4536    1.3667    0.0000 C   0  0  0  0  0  0  0  0  0  0  0  0
   -2.9200    1.6826    0.0000 O   0  0  0  0  0  0  0  0  0  0  0  0
   -3.3795    3.1105    0.0000 C   0  0  0  0  0  0  0  0  0  0  0  0
   -4.8048    3.5780    0.0000 C   0  0  0  0  0  0  0  0  0  0  0  0
   -4.8006    5.0780    0.0000 C   0  0  0  0  0  0  0  0  0  0  0  0
   -3.3728    5.5375    0.0000 O   0  0  0  0  0  0  0  0  0  0  0  0
   -2.4945    4.3215    0.0000 C   0  0  0  0  0  0  0  0  0  0  0  0
  1  2  1  0
  2  3  1  0
  3  4  1  0
  4  5  1  0
  5  6  1  0
  6  7  1  0
  5  8  1  0
  8  9  2  0
  8 10  1  0
 10 11  1  0
 11 12  2  0
 12 13  1  0
 13 14  2  0
 14 15  1  0
 15 16  1  0
 16 17  1  0
 17 18  2  0
 18 19  1  0
 19 20  1  0
 19 21  2  0
 21 22  1  0
 21 23  1  0
 14 24  1  0
 24 25  2  0
 25 26  1  0
 26 27  2  0
 27 28  1  0
 28 29  2  0
 29 30  1  0
 31 30  1  1
 31 32  1  0
 32 33  1  0
 33 34  1  0
 34 35  1  0
  7  2  1  0
 29 11  1  0
 27 13  1  0
 23 16  2  0
 35 31  1  0
M  END
>  <ChEMBL_ID>  (87) 
CHEMBL3092321

>  <SMILES>  (87) 
CN1CCN(C(=O)Nc2cc3c(Nc4ccc(F)c(Cl)c4)ncnc3cc2O[C@H]2CCOC2)CC1

>  <MPO_Hit_Score>  (87) 
0.50429999999999997

>  <Tanimoto_to_Gefitinib>  (87) 
0.48859999999999998

>  <MolecularWeight>  (87) 
500.95999999999998

>  <LogP>  (87) 
4.1100000000000003

>  <TPSA>  (87) 
91.849999999999994

$$$$
CHEMBL3221552
     RDKit          2D

 27 29  0  0  0  0  0  0  0  0999 V2000
   -7.3137    2.8793    0.0000 C   0  0  0  0  0  0  0  0  0  0  0  0
   -6.3030    1.7709    0.0000 O   0  0  0  0  0  0  0  0  0  0  0  0
   -6.7575    0.3414    0.0000 C   0  0  0  0  0  0  0  0  0  0  0  0
   -8.2228    0.0203    0.0000 O   0  0  0  0  0  0  0  0  0  0  0  0
   -5.7468   -0.7669    0.0000 N   0  0  0  0  0  0  0  0  0  0  0  0
   -4.2816   -0.4458    0.0000 C   0  0  0  0  0  0  0  0  0  0  0  0
   -3.8271    0.9837    0.0000 C   0  0  0  0  0  0  0  0  0  0  0  0
   -2.3619    1.3048    0.0000 C   0  0  0  0  0  0  0  0  0  0  0  0
   -1.3512    0.1964    0.0000 C   0  0  0  0  0  0  0  0  0  0  0  0
    0.1141    0.5175    0.0000 N   0  0  0  0  0  0  0  0  0  0  0  0
    1.1248   -0.5908    0.0000 C   0  0  0  0  0  0  0  0  0  0  0  0
    0.6703   -2.0203    0.0000 N   0  0  0  0  0  0  0  0  0  0  0  0
    1.6810   -3.1287    0.0000 C   0  0  0  0  0  0  0  0  0  0  0  0
    3.1462   -2.8075    0.0000 N   0  0  0  0  0  0  0  0  0  0  0  0
    3.6007   -1.3781    0.0000 C   0  0  0  0  0  0  0  0  0  0  0  0
    5.0659   -1.0569    0.0000 C   0  0  0  0  0  0  0  0  0  0  0  0
    5.5205    0.3725    0.0000 C   0  0  0  0  0  0  0  0  0  0  0  0
    6.9857    0.6937    0.0000 O   0  0  0  0  0  0  0  0  0  0  0  0
    7.9964   -0.4147    0.0000 C   0  0  0  0  0  0  0  0  0  0  0  0
    4.5097    1.4809    0.0000 C   0  0  0  0  0  0  0  0  0  0  0  0
    4.9643    2.9104    0.0000 O   0  0  0  0  0  0  0  0  0  0  0  0
    3.9536    4.0187    0.0000 C   0  0  0  0  0  0  0  0  0  0  0  0
    3.0445    1.1598    0.0000 C   0  0  0  0  0  0  0  0  0  0  0  0
    2.5900   -0.2697    0.0000 C   0  0  0  0  0  0  0  0  0  0  0  0
   -1.8057   -1.2331    0.0000 C   0  0  0  0  0  0  0  0  0  0  0  0
   -3.2709   -1.5542    0.0000 C   0  0  0  0  0  0  0  0  0  0  0  0
   -3.7254   -2.9837    0.0000 C   0  0  0  0  0  0  0  0  0  0  0  0
  1  2  1  0
  2  3  1  0
  3  4  2  0
  3  5  1  0
  5  6  1  0
  6  7  1  0
  7  8  2  0
  8  9  1  0
  9 10  1  0
 10 11  1  0
 11 12  1  0
 12 13  2  0
 13 14  1  0
 14 15  2  0
 15 16  1  0
 16 17  2  0
 17 18  1  0
 18 19  1  0
 17 20  1  0
 20 21  1  0
 21 22  1  0
 20 23  2  0
 23 24  1  0
  9 25  2  0
 25 26  1  0
 26 27  1  0
 26  6  2  0
 24 11  2  0
 24 15  1  0
M  END
>  <ChEMBL_ID>  (88) 
CHEMBL3221552

>  <SMILES>  (88) 
COC(=O)Nc1ccc(Nc2ncnc3cc(OC)c(OC)cc23)cc1C

>  <MPO_Hit_Score>  (88) 
0.50139999999999996

>  <Tanimoto_to_Gefitinib>  (88) 
0.4133

>  <MolecularWeight>  (88) 
368.38999999999999

>  <LogP>  (88) 
3.8799999999999999

>  <TPSA>  (88) 
94.599999999999994

$$$$
CHEMBL2018761
     RDKit          2D

 27 29  0  0  0  0  0  0  0  0999 V2000
   -3.7112    4.0240    0.0000 C   0  0  0  0  0  0  0  0  0  0  0  0
   -3.8990    2.5358    0.0000 O   0  0  0  0  0  0  0  0  0  0  0  0
   -5.2817    1.9543    0.0000 C   0  0  0  0  0  0  0  0  0  0  0  0
   -6.4767    2.8611    0.0000 O   0  0  0  0  0  0  0  0  0  0  0  0
   -5.4695    0.4661    0.0000 N   0  0  0  0  0  0  0  0  0  0  0  0
   -4.2746   -0.4406    0.0000 C   0  0  0  0  0  0  0  0  0  0  0  0
   -2.8919    0.1409    0.0000 C   0  0  0  0  0  0  0  0  0  0  0  0
   -1.6969   -0.7658    0.0000 C   0  0  0  0  0  0  0  0  0  0  0  0
   -0.3142   -0.1843    0.0000 N   0  0  0  0  0  0  0  0  0  0  0  0
    0.8807   -1.0911    0.0000 C   0  0  0  0  0  0  0  0  0  0  0  0
    0.6929   -2.5793    0.0000 N   0  0  0  0  0  0  0  0  0  0  0  0
    1.8879   -3.4860    0.0000 C   0  0  0  0  0  0  0  0  0  0  0  0
    3.2706   -2.9045    0.0000 N   0  0  0  0  0  0  0  0  0  0  0  0
    3.4583   -1.4163    0.0000 C   0  0  0  0  0  0  0  0  0  0  0  0
    4.8411   -0.8348    0.0000 C   0  0  0  0  0  0  0  0  0  0  0  0
    5.0288    0.6534    0.0000 C   0  0  0  0  0  0  0  0  0  0  0  0
    6.4115    1.2349    0.0000 O   0  0  0  0  0  0  0  0  0  0  0  0
    7.6065    0.3282    0.0000 C   0  0  0  0  0  0  0  0  0  0  0  0
    3.8339    1.5601    0.0000 C   0  0  0  0  0  0  0  0  0  0  0  0
    4.0217    3.0483    0.0000 O   0  0  0  0  0  0  0  0  0  0  0  0
    2.8267    3.9550    0.0000 C   0  0  0  0  0  0  0  0  0  0  0  0
    2.4512    0.9786    0.0000 C   0  0  0  0  0  0  0  0  0  0  0  0
    2.2634   -0.5096    0.0000 C   0  0  0  0  0  0  0  0  0  0  0  0
   -1.8847   -2.2540    0.0000 C   0  0  0  0  0  0  0  0  0  0  0  0
   -3.2674   -2.8355    0.0000 C   0  0  0  0  0  0  0  0  0  0  0  0
   -4.4623   -1.9288    0.0000 C   0  0  0  0  0  0  0  0  0  0  0  0
   -5.8450   -2.5103    0.0000 C   0  0  0  0  0  0  0  0  0  0  0  0
  1  2  1  0
  2  3  1  0
  3  4  2  0
  3  5  1  0
  5  6  1  0
  6  7  1  0
  7  8  2  0
  8  9  1  0
  9 10  1  0
 10 11  1  0
 11 12  2  0
 12 13  1  0
 13 14  2  0
 14 15  1  0
 15 16  2  0
 16 17  1  0
 17 18  1  0
 16 19  1  0
 19 20  1  0
 20 21  1  0
 19 22  2  0
 22 23  1  0
  8 24  1  0
 24 25  2  0
 25 26  1  0
 26 27  1  0
 26  6  2  0
 23 10  2  0
 23 14  1  0
M  END
>  <ChEMBL_ID>  (89) 
CHEMBL2018761

>  <SMILES>  (89) 
COC(=O)Nc1cc(Nc2ncnc3cc(OC)c(OC)cc23)ccc1C

>  <MPO_Hit_Score>  (89) 
0.50139999999999996

>  <Tanimoto_to_Gefitinib>  (89) 
0.4133

>  <MolecularWeight>  (89) 
368.38999999999999

>  <LogP>  (89) 
3.8799999999999999

>  <TPSA>  (89) 
94.599999999999994

$$$$
CHEMBL2018755
     RDKit          2D

 27 29  0  0  0  0  0  0  0  0999 V2000
   -7.3137    2.8793    0.0000 C   0  0  0  0  0  0  0  0  0  0  0  0
   -6.3030    1.7709    0.0000 O   0  0  0  0  0  0  0  0  0  0  0  0
   -6.7575    0.3414    0.0000 C   0  0  0  0  0  0  0  0  0  0  0  0
   -8.2228    0.0203    0.0000 O   0  0  0  0  0  0  0  0  0  0  0  0
   -5.7468   -0.7669    0.0000 N   0  0  0  0  0  0  0  0  0  0  0  0
   -4.2816   -0.4458    0.0000 C   0  0  0  0  0  0  0  0  0  0  0  0
   -3.8271    0.9837    0.0000 C   0  0  0  0  0  0  0  0  0  0  0  0
   -2.3619    1.3048    0.0000 C   0  0  0  0  0  0  0  0  0  0  0  0
   -1.3512    0.1964    0.0000 C   0  0  0  0  0  0  0  0  0  0  0  0
    0.1141    0.5175    0.0000 N   0  0  0  0  0  0  0  0  0  0  0  0
    1.1248   -0.5908    0.0000 C   0  0  0  0  0  0  0  0  0  0  0  0
    0.6703   -2.0203    0.0000 N   0  0  0  0  0  0  0  0  0  0  0  0
    1.6810   -3.1287    0.0000 C   0  0  0  0  0  0  0  0  0  0  0  0
    3.1462   -2.8075    0.0000 N   0  0  0  0  0  0  0  0  0  0  0  0
    3.6007   -1.3781    0.0000 C   0  0  0  0  0  0  0  0  0  0  0  0
    5.0659   -1.0569    0.0000 C   0  0  0  0  0  0  0  0  0  0  0  0
    5.5205    0.3725    0.0000 C   0  0  0  0  0  0  0  0  0  0  0  0
    6.9857    0.6937    0.0000 O   0  0  0  0  0  0  0  0  0  0  0  0
    7.9964   -0.4147    0.0000 C   0  0  0  0  0  0  0  0  0  0  0  0
    4.5097    1.4809    0.0000 C   0  0  0  0  0  0  0  0  0  0  0  0
    4.9643    2.9104    0.0000 O   0  0  0  0  0  0  0  0  0  0  0  0
    3.9536    4.0187    0.0000 C   0  0  0  0  0  0  0  0  0  0  0  0
    3.0445    1.1598    0.0000 C   0  0  0  0  0  0  0  0  0  0  0  0
    2.5900   -0.2697    0.0000 C   0  0  0  0  0  0  0  0  0  0  0  0
   -1.8057   -1.2331    0.0000 C   0  0  0  0  0  0  0  0  0  0  0  0
   -3.2709   -1.5542    0.0000 C   0  0  0  0  0  0  0  0  0  0  0  0
   -3.7254   -2.9837    0.0000 C   0  0  0  0  0  0  0  0  0  0  0  0
  1  2  1  0
  2  3  1  0
  3  4  2  0
  3  5  1  0
  5  6  1  0
  6  7  1  0
  7  8  2  0
  8  9  1  0
  9 10  1  0
 10 11  1  0
 11 12  1  0
 12 13  2  0
 13 14  1  0
 14 15  2  0
 15 16  1  0
 16 17  2  0
 17 18  1  0
 18 19  1  0
 17 20  1  0
 20 21  1  0
 21 22  1  0
 20 23  2  0
 23 24  1  0
  9 25  2  0
 25 26  1  0
 26 27  1  0
 26  6  2  0
 24 11  2  0
 24 15  1  0
M  END
>  <ChEMBL_ID>  (90) 
CHEMBL2018755

>  <SMILES>  (90) 
COC(=O)Nc1ccc(Nc2ncnc3cc(OC)c(OC)cc23)cc1C

>  <MPO_Hit_Score>  (90) 
0.50139999999999996

>  <Tanimoto_to_Gefitinib>  (90) 
0.4133

>  <MolecularWeight>  (90) 
368.38999999999999

>  <LogP>  (90) 
3.8799999999999999

>  <TPSA>  (90) 
94.599999999999994

$$$$
CHEMBL3221553
     RDKit          2D

 27 29  0  0  0  0  0  0  0  0999 V2000
   -3.7112    4.0240    0.0000 C   0  0  0  0  0  0  0  0  0  0  0  0
   -3.8990    2.5358    0.0000 O   0  0  0  0  0  0  0  0  0  0  0  0
   -5.2817    1.9543    0.0000 C   0  0  0  0  0  0  0  0  0  0  0  0
   -6.4767    2.8611    0.0000 O   0  0  0  0  0  0  0  0  0  0  0  0
   -5.4695    0.4661    0.0000 N   0  0  0  0  0  0  0  0  0  0  0  0
   -4.2746   -0.4406    0.0000 C   0  0  0  0  0  0  0  0  0  0  0  0
   -2.8919    0.1409    0.0000 C   0  0  0  0  0  0  0  0  0  0  0  0
   -1.6969   -0.7658    0.0000 C   0  0  0  0  0  0  0  0  0  0  0  0
   -0.3142   -0.1843    0.0000 N   0  0  0  0  0  0  0  0  0  0  0  0
    0.8807   -1.0911    0.0000 C   0  0  0  0  0  0  0  0  0  0  0  0
    0.6929   -2.5793    0.0000 N   0  0  0  0  0  0  0  0  0  0  0  0
    1.8879   -3.4860    0.0000 C   0  0  0  0  0  0  0  0  0  0  0  0
    3.2706   -2.9045    0.0000 N   0  0  0  0  0  0  0  0  0  0  0  0
    3.4583   -1.4163    0.0000 C   0  0  0  0  0  0  0  0  0  0  0  0
    4.8411   -0.8348    0.0000 C   0  0  0  0  0  0  0  0  0  0  0  0
    5.0288    0.6534    0.0000 C   0  0  0  0  0  0  0  0  0  0  0  0
    6.4115    1.2349    0.0000 O   0  0  0  0  0  0  0  0  0  0  0  0
    7.6065    0.3282    0.0000 C   0  0  0  0  0  0  0  0  0  0  0  0
    3.8339    1.5601    0.0000 C   0  0  0  0  0  0  0  0  0  0  0  0
    4.0217    3.0483    0.0000 O   0  0  0  0  0  0  0  0  0  0  0  0
    2.8267    3.9550    0.0000 C   0  0  0  0  0  0  0  0  0  0  0  0
    2.4512    0.9786    0.0000 C   0  0  0  0  0  0  0  0  0  0  0  0
    2.2634   -0.5096    0.0000 C   0  0  0  0  0  0  0  0  0  0  0  0
   -1.8847   -2.2540    0.0000 C   0  0  0  0  0  0  0  0  0  0  0  0
   -3.2674   -2.8355    0.0000 C   0  0  0  0  0  0  0  0  0  0  0  0
   -4.4623   -1.9288    0.0000 C   0  0  0  0  0  0  0  0  0  0  0  0
   -5.8450   -2.5103    0.0000 C   0  0  0  0  0  0  0  0  0  0  0  0
  1  2  1  0
  2  3  1  0
  3  4  2  0
  3  5  1  0
  5  6  1  0
  6  7  1  0
  7  8  2  0
  8  9  1  0
  9 10  1  0
 10 11  1  0
 11 12  2  0
 12 13  1  0
 13 14  2  0
 14 15  1  0
 15 16  2  0
 16 17  1  0
 17 18  1  0
 16 19  1  0
 19 20  1  0
 20 21  1  0
 19 22  2  0
 22 23  1  0
  8 24  1  0
 24 25  2  0
 25 26  1  0
 26 27  1  0
 26  6  2  0
 23 10  2  0
 23 14  1  0
M  END
>  <ChEMBL_ID>  (91) 
CHEMBL3221553

>  <SMILES>  (91) 
COC(=O)Nc1cc(Nc2ncnc3cc(OC)c(OC)cc23)ccc1C

>  <MPO_Hit_Score>  (91) 
0.50139999999999996

>  <Tanimoto_to_Gefitinib>  (91) 
0.4133

>  <MolecularWeight>  (91) 
368.38999999999999

>  <LogP>  (91) 
3.8799999999999999

>  <TPSA>  (91) 
94.599999999999994

$$$$
CHEMBL3805782
     RDKit          2D

 29 33  0  0  0  0  0  0  0  0999 V2000
    8.1457    0.4952    0.0000 F   0  0  0  0  0  0  0  0  0  0  0  0
    6.6772    0.1893    0.0000 C   0  0  0  0  0  0  0  0  0  0  0  0
    6.2078   -1.2353    0.0000 C   0  0  0  0  0  0  0  0  0  0  0  0
    4.7393   -1.5411    0.0000 C   0  0  0  0  0  0  0  0  0  0  0  0
    3.7402   -0.4223    0.0000 C   0  0  0  0  0  0  0  0  0  0  0  0
    2.2717   -0.7281    0.0000 N   0  0  0  0  0  0  0  0  0  0  0  0
    1.2726    0.3907    0.0000 C   0  0  0  0  0  0  0  0  0  0  0  0
    1.7420    1.8154    0.0000 N   0  0  0  0  0  0  0  0  0  0  0  0
    0.7429    2.9342    0.0000 C   0  0  0  0  0  0  0  0  0  0  0  0
   -0.7256    2.6284    0.0000 N   0  0  0  0  0  0  0  0  0  0  0  0
   -1.1950    1.2037    0.0000 C   0  0  0  0  0  0  0  0  0  0  0  0
   -2.6635    0.8979    0.0000 C   0  0  0  0  0  0  0  0  0  0  0  0
   -3.1329   -0.5268    0.0000 C   0  0  0  0  0  0  0  0  0  0  0  0
   -4.6014   -0.8326    0.0000 O   0  0  0  0  0  0  0  0  0  0  0  0
   -5.6005    0.2862    0.0000 C   0  0  0  0  0  0  0  0  0  0  0  0
   -7.0929    0.1356    0.0000 C   0  0  0  0  0  0  0  0  0  0  0  0
   -7.6974    1.5084    0.0000 C   0  0  0  0  0  0  0  0  0  0  0  0
   -6.5785    2.5075    0.0000 O   0  0  0  0  0  0  0  0  0  0  0  0
   -5.2826    1.7522    0.0000 C   0  0  0  0  0  0  0  0  0  0  0  0
   -2.1338   -1.6456    0.0000 C   0  0  0  0  0  0  0  0  0  0  0  0
   -2.6032   -3.0703    0.0000 O   0  0  0  0  0  0  0  0  0  0  0  0
   -1.6041   -4.1891    0.0000 C   0  0  0  0  0  0  0  0  0  0  0  0
   -0.1356   -3.8833    0.0000 C   0  0  0  0  0  0  0  0  0  0  0  0
    0.3338   -2.4586    0.0000 O   0  0  0  0  0  0  0  0  0  0  0  0
   -0.6653   -1.3398    0.0000 C   0  0  0  0  0  0  0  0  0  0  0  0
   -0.1959    0.0849    0.0000 C   0  0  0  0  0  0  0  0  0  0  0  0
    4.2096    1.0024    0.0000 C   0  0  0  0  0  0  0  0  0  0  0  0
    5.6781    1.3082    0.0000 C   0  0  0  0  0  0  0  0  0  0  0  0
    6.1475    2.7329    0.0000 Cl  0  0  0  0  0  0  0  0  0  0  0  0
  1  2  1  0
  2  3  1  0
  3  4  2  0
  4  5  1  0
  5  6  1  0
  6  7  1  0
  7  8  1  0
  8  9  2  0
  9 10  1  0
 10 11  2  0
 11 12  1  0
 12 13  2  0
 13 14  1  0
 14 15  1  0
 15 16  1  0
 16 17  1  0
 17 18  1  0
 18 19  1  0
 13 20  1  0
 20 21  1  0
 21 22  1  0
 22 23  1  0
 23 24  1  0
 24 25  1  0
 25 26  1  0
  5 27  2  0
 27 28  1  0
 28 29  1  0
 28  2  2  0
 26  7  2  0
 26 11  1  0
 19 15  1  0
 25 20  2  0
M  END
>  <ChEMBL_ID>  (92) 
CHEMBL3805782

>  <SMILES>  (92) 
Fc1ccc(Nc2ncnc3cc(OC4CCOC4)c4c(c23)OCCO4)cc1Cl

>  <MPO_Hit_Score>  (92) 
0.49990000000000001

>  <Tanimoto_to_Gefitinib>  (92) 
0.42680000000000001

>  <MolecularWeight>  (92) 
417.81999999999999

>  <LogP>  (92) 
4.0999999999999996

>  <TPSA>  (92) 
74.730000000000004

$$$$
CHEMBL1204168
     RDKit          2D

 22 24  0  0  0  0  0  0  0  0999 V2000
   -6.1245    1.3539    0.0000 C   0  0  0  0  0  0  0  0  0  0  0  0
   -5.5269   -0.0219    0.0000 O   0  0  0  0  0  0  0  0  0  0  0  0
   -4.0366   -0.1923    0.0000 C   0  0  0  0  0  0  0  0  0  0  0  0
   -3.4390   -1.5681    0.0000 C   0  0  0  0  0  0  0  0  0  0  0  0
   -1.9487   -1.7385    0.0000 C   0  0  0  0  0  0  0  0  0  0  0  0
   -1.3511   -3.1143    0.0000 N   0  0  0  0  0  0  0  0  0  0  0  0
    0.1392   -3.2847    0.0000 C   0  0  0  0  0  0  0  0  0  0  0  0
    1.0319   -2.0792    0.0000 N   0  0  0  0  0  0  0  0  0  0  0  0
    0.4343   -0.7034    0.0000 C   0  0  0  0  0  0  0  0  0  0  0  0
    1.3270    0.5021    0.0000 N   0  0  0  0  0  0  0  0  0  0  0  0
    2.8173    0.3317    0.0000 C   0  0  0  0  0  0  0  0  0  0  0  0
    3.4149   -1.0441    0.0000 C   0  0  0  0  0  0  0  0  0  0  0  0
    4.9052   -1.2145    0.0000 C   0  0  0  0  0  0  0  0  0  0  0  0
    5.7979   -0.0090    0.0000 C   0  0  0  0  0  0  0  0  0  0  0  0
    5.2002    1.3668    0.0000 C   0  0  0  0  0  0  0  0  0  0  0  0
    6.0929    2.5722    0.0000 Br  0  0  0  0  0  0  0  0  0  0  0  0
    3.7099    1.5371    0.0000 C   0  0  0  0  0  0  0  0  0  0  0  0
   -1.0560   -0.5330    0.0000 C   0  0  0  0  0  0  0  0  0  0  0  0
   -1.6536    0.8428    0.0000 C   0  0  0  0  0  0  0  0  0  0  0  0
   -3.1439    1.0131    0.0000 C   0  0  0  0  0  0  0  0  0  0  0  0
   -3.7415    2.3890    0.0000 O   0  0  0  0  0  0  0  0  0  0  0  0
   -2.8488    3.5944    0.0000 C   0  0  0  0  0  0  0  0  0  0  0  0
  1  2  1  0
  2  3  1  0
  3  4  2  0
  4  5  1  0
  5  6  2  0
  6  7  1  0
  7  8  2  0
  8  9  1  0
  9 10  1  0
 10 11  1  0
 11 12  2  0
 12 13  1  0
 13 14  2  0
 14 15  1  0
 15 16  1  0
 15 17  2  0
  9 18  2  0
 18 19  1  0
 19 20  2  0
 20 21  1  0
 21 22  1  0
 20  3  1  0
 18  5  1  0
 17 11  1  0
M  END
>  <ChEMBL_ID>  (93) 
CHEMBL1204168

>  <SMILES>  (93) 
COc1cc2ncnc(Nc3cccc(Br)c3)c2cc1OC

>  <MPO_Hit_Score>  (93) 
0.4965

>  <Tanimoto_to_Gefitinib>  (93) 
0.43480000000000002

>  <MolecularWeight>  (93) 
360.20999999999998

>  <LogP>  (93) 
4.1500000000000004

>  <TPSA>  (93) 
56.270000000000003

$$$$
CHEMBL29197
     RDKit          2D

 22 24  0  0  0  0  0  0  0  0999 V2000
   -6.1245    1.3539    0.0000 C   0  0  0  0  0  0  0  0  0  0  0  0
   -5.5269   -0.0219    0.0000 O   0  0  0  0  0  0  0  0  0  0  0  0
   -4.0366   -0.1923    0.0000 C   0  0  0  0  0  0  0  0  0  0  0  0
   -3.4390   -1.5681    0.0000 C   0  0  0  0  0  0  0  0  0  0  0  0
   -1.9487   -1.7385    0.0000 C   0  0  0  0  0  0  0  0  0  0  0  0
   -1.3511   -3.1143    0.0000 N   0  0  0  0  0  0  0  0  0  0  0  0
    0.1392   -3.2847    0.0000 C   0  0  0  0  0  0  0  0  0  0  0  0
    1.0319   -2.0792    0.0000 N   0  0  0  0  0  0  0  0  0  0  0  0
    0.4343   -0.7034    0.0000 C   0  0  0  0  0  0  0  0  0  0  0  0
    1.3270    0.5021    0.0000 N   0  0  0  0  0  0  0  0  0  0  0  0
    2.8173    0.3317    0.0000 C   0  0  0  0  0  0  0  0  0  0  0  0
    3.4149   -1.0441    0.0000 C   0  0  0  0  0  0  0  0  0  0  0  0
    4.9052   -1.2145    0.0000 C   0  0  0  0  0  0  0  0  0  0  0  0
    5.7979   -0.0090    0.0000 C   0  0  0  0  0  0  0  0  0  0  0  0
    5.2002    1.3668    0.0000 C   0  0  0  0  0  0  0  0  0  0  0  0
    6.0929    2.5722    0.0000 Br  0  0  0  0  0  0  0  0  0  0  0  0
    3.7099    1.5371    0.0000 C   0  0  0  0  0  0  0  0  0  0  0  0
   -1.0560   -0.5330    0.0000 C   0  0  0  0  0  0  0  0  0  0  0  0
   -1.6536    0.8428    0.0000 C   0  0  0  0  0  0  0  0  0  0  0  0
   -3.1439    1.0131    0.0000 C   0  0  0  0  0  0  0  0  0  0  0  0
   -3.7415    2.3890    0.0000 O   0  0  0  0  0  0  0  0  0  0  0  0
   -2.8488    3.5944    0.0000 C   0  0  0  0  0  0  0  0  0  0  0  0
  1  2  1  0
  2  3  1  0
  3  4  2  0
  4  5  1  0
  5  6  2  0
  6  7  1  0
  7  8  2  0
  8  9  1  0
  9 10  1  0
 10 11  1  0
 11 12  2  0
 12 13  1  0
 13 14  2  0
 14 15  1  0
 15 16  1  0
 15 17  2  0
  9 18  2  0
 18 19  1  0
 19 20  2  0
 20 21  1  0
 21 22  1  0
 20  3  1  0
 18  5  1  0
 17 11  1  0
M  END
>  <ChEMBL_ID>  (94) 
CHEMBL29197

>  <SMILES>  (94) 
COc1cc2ncnc(Nc3cccc(Br)c3)c2cc1OC

>  <MPO_Hit_Score>  (94) 
0.4965

>  <Tanimoto_to_Gefitinib>  (94) 
0.43480000000000002

>  <MolecularWeight>  (94) 
360.20999999999998

>  <LogP>  (94) 
4.1500000000000004

>  <TPSA>  (94) 
56.270000000000003

$$$$
CHEMBL207130
     RDKit          2D

 34 37  0  0  0  0  0  0  0  0999 V2000
   -3.7452   -3.5503    0.0000 C   0  0  0  0  0  0  0  0  0  0  0  0
   -2.4394   -4.2885    0.0000 O   0  0  0  0  0  0  0  0  0  0  0  0
   -1.1473   -3.5267    0.0000 C   0  0  0  0  0  0  0  0  0  0  0  0
    0.1585   -4.2648    0.0000 C   0  0  0  0  0  0  0  0  0  0  0  0
    1.4507   -3.5031    0.0000 C   0  0  0  0  0  0  0  0  0  0  0  0
    2.7565   -4.2412    0.0000 N   0  0  0  0  0  0  0  0  0  0  0  0
    4.0487   -3.4794    0.0000 C   0  0  0  0  0  0  0  0  0  0  0  0
    4.0350   -1.9795    0.0000 N   0  0  0  0  0  0  0  0  0  0  0  0
    2.7292   -1.2413    0.0000 C   0  0  0  0  0  0  0  0  0  0  0  0
    2.7156    0.2586    0.0000 N   0  0  0  0  0  0  0  0  0  0  0  0
    4.0077    1.0204    0.0000 C   0  0  0  0  0  0  0  0  0  0  0  0
    5.3136    0.2822    0.0000 C   0  0  0  0  0  0  0  0  0  0  0  0
    6.6057    1.0440    0.0000 C   0  0  0  0  0  0  0  0  0  0  0  0
    6.5921    2.5439    0.0000 C   0  0  0  0  0  0  0  0  0  0  0  0
    5.2863    3.2821    0.0000 C   0  0  0  0  0  0  0  0  0  0  0  0
    5.2726    4.7820    0.0000 Cl  0  0  0  0  0  0  0  0  0  0  0  0
    3.9941    2.5203    0.0000 C   0  0  0  0  0  0  0  0  0  0  0  0
    2.6883    3.2585    0.0000 F   0  0  0  0  0  0  0  0  0  0  0  0
    1.4371   -2.0031    0.0000 C   0  0  0  0  0  0  0  0  0  0  0  0
    0.1313   -1.2650    0.0000 C   0  0  0  0  0  0  0  0  0  0  0  0
   -1.1609   -2.0267    0.0000 C   0  0  0  0  0  0  0  0  0  0  0  0
   -2.4667   -1.2886    0.0000 C   0  0  0  0  0  0  0  0  0  0  0  0
   -2.4804    0.2113    0.0000 N   0  0  0  0  0  0  0  0  0  0  0  0
   -1.1882    0.9731    0.0000 C   0  0  0  0  0  0  0  0  0  0  0  0
   -3.7862    0.9495    0.0000 C   0  0  0  0  0  0  0  0  0  0  0  0
   -2.8325    2.1073    0.0000 C   0  0  0  0  0  0  0  0  0  0  0  0
   -3.3583    3.5121    0.0000 C   0  0  0  0  0  0  0  0  0  0  0  0
   -4.8378    3.7591    0.0000 N   0  0  0  0  0  0  0  0  0  0  0  0
   -5.3636    5.1640    0.0000 C   0  0  0  0  0  0  0  0  0  0  0  0
   -5.7915    2.6014    0.0000 C   0  0  0  0  0  0  0  0  0  0  0  0
   -5.2657    1.1965    0.0000 C   0  0  0  0  0  0  0  0  0  0  0  0
   -4.2864   -0.4646    0.0000 C   0  0  0  0  0  0  0  0  0  0  0  0
   -5.7611   -0.7385    0.0000 O   0  0  0  0  0  0  0  0  0  0  0  0
   -3.3118   -1.6049    0.0000 N   0  0  0  0  0  0  0  0  0  0  0  0
  1  2  1  0
  2  3  1  0
  3  4  2  0
  4  5  1  0
  5  6  2  0
  6  7  1  0
  7  8  2  0
  8  9  1  0
  9 10  1  0
 10 11  1  0
 11 12  2  0
 12 13  1  0
 13 14  2  0
 14 15  1  0
 15 16  1  0
 15 17  2  0
 17 18  1  0
  9 19  2  0
 19 20  1  0
 20 21  2  0
 21 22  1  0
 22 23  1  0
 23 24  1  0
 23 25  1  0
 25 26  1  0
 26 27  1  0
 27 28  1  0
 28 29  1  0
 28 30  1  0
 30 31  1  0
 25 32  1  0
 32 33  2  0
 32 34  1  0
 21  3  1  0
 19  5  1  0
 17 11  1  0
 31 25  1  0
M  END
>  <ChEMBL_ID>  (95) 
CHEMBL207130

>  <SMILES>  (95) 
COc1cc2ncnc(Nc3cccc(Cl)c3F)c2cc1CN(C)C1(C(N)=O)CCN(C)CC1

>  <MPO_Hit_Score>  (95) 
0.49519999999999997

>  <Tanimoto_to_Gefitinib>  (95) 
0.41299999999999998

>  <MolecularWeight>  (95) 
486.98000000000002

>  <LogP>  (95) 
3.5600000000000001

>  <TPSA>  (95) 
96.609999999999999

$$$$
CHEMBL294034
     RDKit          2D

 29 32  0  0  0  0  0  0  0  0999 V2000
   -5.0846   -3.0861    0.0000 C   0  0  0  0  0  0  0  0  0  0  0  0
   -3.8676   -3.9630    0.0000 O   0  0  0  0  0  0  0  0  0  0  0  0
   -2.4997   -3.3475    0.0000 C   0  0  0  0  0  0  0  0  0  0  0  0
   -1.2827   -4.2244    0.0000 C   0  0  0  0  0  0  0  0  0  0  0  0
    0.0852   -3.6090    0.0000 C   0  0  0  0  0  0  0  0  0  0  0  0
    1.3022   -4.4859    0.0000 N   0  0  0  0  0  0  0  0  0  0  0  0
    2.6701   -3.8704    0.0000 C   0  0  0  0  0  0  0  0  0  0  0  0
    2.8210   -2.3780    0.0000 N   0  0  0  0  0  0  0  0  0  0  0  0
    1.6041   -1.5011    0.0000 C   0  0  0  0  0  0  0  0  0  0  0  0
    1.7550   -0.0087    0.0000 N   0  0  0  0  0  0  0  0  0  0  0  0
    3.1229    0.6068    0.0000 C   0  0  0  0  0  0  0  0  0  0  0  0
    4.3399   -0.2702    0.0000 C   0  0  0  0  0  0  0  0  0  0  0  0
    5.7078    0.3453    0.0000 C   0  0  0  0  0  0  0  0  0  0  0  0
    5.8588    1.8377    0.0000 C   0  0  0  0  0  0  0  0  0  0  0  0
    7.2267    2.4532    0.0000 F   0  0  0  0  0  0  0  0  0  0  0  0
    4.6418    2.7146    0.0000 C   0  0  0  0  0  0  0  0  0  0  0  0
    4.7927    4.2070    0.0000 Cl  0  0  0  0  0  0  0  0  0  0  0  0
    3.2739    2.0991    0.0000 C   0  0  0  0  0  0  0  0  0  0  0  0
    0.2362   -2.1166    0.0000 C   0  0  0  0  0  0  0  0  0  0  0  0
   -0.9808   -1.2397    0.0000 C   0  0  0  0  0  0  0  0  0  0  0  0
   -2.3487   -1.8551    0.0000 C   0  0  0  0  0  0  0  0  0  0  0  0
   -3.5657   -0.9782    0.0000 O   0  0  0  0  0  0  0  0  0  0  0  0
   -3.4148    0.5142    0.0000 C   0  0  0  0  0  0  0  0  0  0  0  0
   -4.6317    1.3911    0.0000 C   0  0  0  0  0  0  0  0  0  0  0  0
   -4.4808    2.8835    0.0000 N   0  0  0  0  0  0  0  0  0  0  0  0
   -5.5994    3.8828    0.0000 C   0  0  0  0  0  0  0  0  0  0  0  0
   -4.9947    5.2555    0.0000 C   0  0  0  0  0  0  0  0  0  0  0  0
   -3.5023    5.1045    0.0000 N   0  0  0  0  0  0  0  0  0  0  0  0
   -3.1847    3.6386    0.0000 C   0  0  0  0  0  0  0  0  0  0  0  0
  1  2  1  0
  2  3  1  0
  3  4  2  0
  4  5  1  0
  5  6  2  0
  6  7  1  0
  7  8  2  0
  8  9  1  0
  9 10  1  0
 10 11  1  0
 11 12  1  0
 12 13  2  0
 13 14  1  0
 14 15  1  0
 14 16  2  0
 16 17  1  0
 16 18  1  0
  9 19  2  0
 19 20  1  0
 20 21  2  0
 21 22  1  0
 22 23  1  0
 23 24  1  0
 24 25  1  0
 25 26  1  0
 26 27  2  0
 27 28  1  0
 28 29  2  0
 21  3  1  0
 19  5  1  0
 18 11  2  0
 29 25  1  0
M  END
>  <ChEMBL_ID>  (96) 
CHEMBL294034

>  <SMILES>  (96) 
COc1cc2ncnc(Nc3ccc(F)c(Cl)c3)c2cc1OCCn1ccnc1

>  <MPO_Hit_Score>  (96) 
0.49340000000000001

>  <Tanimoto_to_Gefitinib>  (96) 
0.66200000000000003

>  <MolecularWeight>  (96) 
413.83999999999997

>  <LogP>  (96) 
4.4500000000000002

>  <TPSA>  (96) 
74.090000000000003

$$$$
CHEMBL56142
     RDKit          2D

 30 33  0  0  0  0  0  0  0  0999 V2000
   -4.4568   -3.9073    0.0000 C   0  0  0  0  0  0  0  0  0  0  0  0
   -3.1325   -4.6117    0.0000 O   0  0  0  0  0  0  0  0  0  0  0  0
   -1.8603   -3.8170    0.0000 C   0  0  0  0  0  0  0  0  0  0  0  0
   -0.5360   -4.5214    0.0000 C   0  0  0  0  0  0  0  0  0  0  0  0
    0.7362   -3.7267    0.0000 C   0  0  0  0  0  0  0  0  0  0  0  0
    2.0605   -4.4310    0.0000 N   0  0  0  0  0  0  0  0  0  0  0  0
    3.3327   -3.6363    0.0000 C   0  0  0  0  0  0  0  0  0  0  0  0
    3.2806   -2.1372    0.0000 N   0  0  0  0  0  0  0  0  0  0  0  0
    1.9562   -1.4329    0.0000 C   0  0  0  0  0  0  0  0  0  0  0  0
    1.9041    0.0662    0.0000 N   0  0  0  0  0  0  0  0  0  0  0  0
    3.1763    0.8609    0.0000 C   0  0  0  0  0  0  0  0  0  0  0  0
    4.5006    0.1566    0.0000 C   0  0  0  0  0  0  0  0  0  0  0  0
    5.7728    0.9513    0.0000 C   0  0  0  0  0  0  0  0  0  0  0  0
    5.7206    2.4504    0.0000 C   0  0  0  0  0  0  0  0  0  0  0  0
    6.9928    3.2451    0.0000 F   0  0  0  0  0  0  0  0  0  0  0  0
    4.3963    3.1547    0.0000 C   0  0  0  0  0  0  0  0  0  0  0  0
    4.3442    4.6538    0.0000 Cl  0  0  0  0  0  0  0  0  0  0  0  0
    3.1241    2.3600    0.0000 C   0  0  0  0  0  0  0  0  0  0  0  0
    0.6841   -2.2276    0.0000 C   0  0  0  0  0  0  0  0  0  0  0  0
   -0.6403   -1.5232    0.0000 C   0  0  0  0  0  0  0  0  0  0  0  0
   -1.9124   -2.3179    0.0000 C   0  0  0  0  0  0  0  0  0  0  0  0
   -3.2368   -1.6135    0.0000 O   0  0  0  0  0  0  0  0  0  0  0  0
   -3.2889   -0.1144    0.0000 C   0  0  0  0  0  0  0  0  0  0  0  0
   -4.6132    0.5900    0.0000 C   0  0  0  0  0  0  0  0  0  0  0  0
   -4.6654    2.0891    0.0000 N   0  0  0  0  0  0  0  0  0  0  0  0
   -3.3932    2.8838    0.0000 C   0  0  0  0  0  0  0  0  0  0  0  0
   -3.4453    4.3829    0.0000 C   0  0  0  0  0  0  0  0  0  0  0  0
   -4.7697    5.0873    0.0000 C   0  0  0  0  0  0  0  0  0  0  0  0
   -6.0418    4.2926    0.0000 C   0  0  0  0  0  0  0  0  0  0  0  0
   -5.9897    2.7935    0.0000 C   0  0  0  0  0  0  0  0  0  0  0  0
  1  2  1  0
  2  3  1  0
  3  4  2  0
  4  5  1  0
  5  6  2  0
  6  7  1  0
  7  8  2  0
  8  9  1  0
  9 10  1  0
 10 11  1  0
 11 12  1  0
 12 13  2  0
 13 14  1  0
 14 15  1  0
 14 16  2  0
 16 17  1  0
 16 18  1  0
  9 19  2  0
 19 20  1  0
 20 21  2  0
 21 22  1  0
 22 23  1  0
 23 24  1  0
 24 25  1  0
 25 26  1  0
 26 27  1  0
 27 28  1  0
 28 29  1  0
 29 30  1  0
 21  3  1  0
 19  5  1  0
 18 11  2  0
 30 25  1  0
M  END
>  <ChEMBL_ID>  (97) 
CHEMBL56142

>  <SMILES>  (97) 
COc1cc2ncnc(Nc3ccc(F)c(Cl)c3)c2cc1OCCN1CCCCC1

>  <MPO_Hit_Score>  (97) 
0.49259999999999998

>  <Tanimoto_to_Gefitinib>  (97) 
0.77270000000000005

>  <MolecularWeight>  (97) 
430.91000000000003

>  <LogP>  (97) 
5.04

>  <TPSA>  (97) 
59.509999999999998

$$$$
CHEMBL3806248
     RDKit          2D

 26 29  0  0  0  0  0  0  0  0999 V2000
   -7.8404   -0.7188    0.0000 C   0  0  0  0  0  0  0  0  0  0  0  0
   -6.3608   -0.9655    0.0000 C   0  0  0  0  0  0  0  0  0  0  0  0
   -5.4074    0.1925    0.0000 O   0  0  0  0  0  0  0  0  0  0  0  0
   -3.9278   -0.0542    0.0000 C   0  0  0  0  0  0  0  0  0  0  0  0
   -3.4016   -1.4589    0.0000 C   0  0  0  0  0  0  0  0  0  0  0  0
   -1.9221   -1.7056    0.0000 C   0  0  0  0  0  0  0  0  0  0  0  0
   -1.3959   -3.1103    0.0000 N   0  0  0  0  0  0  0  0  0  0  0  0
    0.0836   -3.3570    0.0000 C   0  0  0  0  0  0  0  0  0  0  0  0
    1.0371   -2.1990    0.0000 N   0  0  0  0  0  0  0  0  0  0  0  0
    0.5109   -0.7943    0.0000 C   0  0  0  0  0  0  0  0  0  0  0  0
    1.4644    0.3637    0.0000 N   0  0  0  0  0  0  0  0  0  0  0  0
    2.9439    0.1170    0.0000 C   0  0  0  0  0  0  0  0  0  0  0  0
    3.4701   -1.2877    0.0000 C   0  0  0  0  0  0  0  0  0  0  0  0
    4.9497   -1.5344    0.0000 C   0  0  0  0  0  0  0  0  0  0  0  0
    5.9031   -0.3764    0.0000 C   0  0  0  0  0  0  0  0  0  0  0  0
    7.3827   -0.6231    0.0000 F   0  0  0  0  0  0  0  0  0  0  0  0
    5.3769    1.0283    0.0000 C   0  0  0  0  0  0  0  0  0  0  0  0
    6.3304    2.1863    0.0000 Cl  0  0  0  0  0  0  0  0  0  0  0  0
    3.8974    1.2750    0.0000 C   0  0  0  0  0  0  0  0  0  0  0  0
   -0.9686   -0.5476    0.0000 C   0  0  0  0  0  0  0  0  0  0  0  0
   -1.4948    0.8571    0.0000 C   0  0  0  0  0  0  0  0  0  0  0  0
   -0.5413    2.0151    0.0000 O   0  0  0  0  0  0  0  0  0  0  0  0
   -1.0675    3.4198    0.0000 C   0  0  0  0  0  0  0  0  0  0  0  0
   -2.5471    3.6665    0.0000 C   0  0  0  0  0  0  0  0  0  0  0  0
   -3.5005    2.5085    0.0000 O   0  0  0  0  0  0  0  0  0  0  0  0
   -2.9744    1.1038    0.0000 C   0  0  0  0  0  0  0  0  0  0  0  0
  1  2  1  0
  2  3  1  0
  3  4  1  0
  4  5  2  0
  5  6  1  0
  6  7  2  0
  7  8  1  0
  8  9  2  0
  9 10  1  0
 10 11  1  0
 11 12  1  0
 12 13  1  0
 13 14  2  0
 14 15  1  0
 15 16  1  0
 15 17  2  0
 17 18  1  0
 17 19  1  0
 10 20  2  0
 20 21  1  0
 21 22  1  0
 22 23  1  0
 23 24  1  0
 24 25  1  0
 25 26  1  0
 26  4  1  0
 20  6  1  0
 19 12  2  0
 26 21  2  0
M  END
>  <ChEMBL_ID>  (98) 
CHEMBL3806248

>  <SMILES>  (98) 
CCOc1cc2ncnc(Nc3ccc(F)c(Cl)c3)c2c2c1OCCO2

>  <MPO_Hit_Score>  (98) 
0.4919

>  <Tanimoto_to_Gefitinib>  (98) 
0.47999999999999998

>  <MolecularWeight>  (98) 
375.79000000000002

>  <LogP>  (98) 
4.3399999999999999

>  <TPSA>  (98) 
65.5

$$$$
CHEMBL3917723
     RDKit          2D

 36 39  0  0  0  0  0  0  0  0999 V2000
  -11.5912    2.5902    0.0000 C   0  0  0  0  0  0  0  0  0  0  0  0
  -10.4572    1.6084    0.0000 O   0  0  0  0  0  0  0  0  0  0  0  0
  -10.7405    0.1354    0.0000 C   0  0  0  0  0  0  0  0  0  0  0  0
  -12.1578   -0.3558    0.0000 O   0  0  0  0  0  0  0  0  0  0  0  0
   -9.6065   -0.8465    0.0000 C   0  0  0  0  0  0  0  0  0  0  0  0
   -8.1892   -0.3554    0.0000 N   0  0  0  0  0  0  0  0  0  0  0  0
   -7.0552   -1.3373    0.0000 C   0  0  0  0  0  0  0  0  0  0  0  0
   -7.3385   -2.8103    0.0000 O   0  0  0  0  0  0  0  0  0  0  0  0
   -5.6379   -0.8461    0.0000 C   0  0  0  0  0  0  0  0  0  0  0  0
   -5.3546    0.6269    0.0000 C   0  0  0  0  0  0  0  0  0  0  0  0
   -3.9372    1.1180    0.0000 C   0  0  0  0  0  0  0  0  0  0  0  0
   -2.8032    0.1361    0.0000 C   0  0  0  0  0  0  0  0  0  0  0  0
   -1.3859    0.6272    0.0000 N   0  0  0  0  0  0  0  0  0  0  0  0
   -0.2519   -0.3546    0.0000 C   0  0  0  0  0  0  0  0  0  0  0  0
   -0.5353   -1.8276    0.0000 N   0  0  0  0  0  0  0  0  0  0  0  0
    0.5987   -2.8095    0.0000 C   0  0  0  0  0  0  0  0  0  0  0  0
    2.0160   -2.3184    0.0000 N   0  0  0  0  0  0  0  0  0  0  0  0
    2.2994   -0.8454    0.0000 C   0  0  0  0  0  0  0  0  0  0  0  0
    3.7167   -0.3542    0.0000 C   0  0  0  0  0  0  0  0  0  0  0  0
    4.0000    1.1187    0.0000 C   0  0  0  0  0  0  0  0  0  0  0  0
    5.4173    1.6099    0.0000 O   0  0  0  0  0  0  0  0  0  0  0  0
    6.5513    0.6280    0.0000 C   0  0  0  0  0  0  0  0  0  0  0  0
    7.9686    1.1191    0.0000 C   0  0  0  0  0  0  0  0  0  0  0  0
    9.1026    0.1373    0.0000 N   0  0  0  0  0  0  0  0  0  0  0  0
    8.8193   -1.3357    0.0000 C   0  0  0  0  0  0  0  0  0  0  0  0
    9.9533   -2.3176    0.0000 C   0  0  0  0  0  0  0  0  0  0  0  0
   11.3706   -1.8265    0.0000 C   0  0  0  0  0  0  0  0  0  0  0  0
   11.6539   -0.3535    0.0000 C   0  0  0  0  0  0  0  0  0  0  0  0
   10.5200    0.6284    0.0000 C   0  0  0  0  0  0  0  0  0  0  0  0
    2.8660    2.1006    0.0000 C   0  0  0  0  0  0  0  0  0  0  0  0
    3.1494    3.5736    0.0000 O   0  0  0  0  0  0  0  0  0  0  0  0
    2.0154    4.5555    0.0000 C   0  0  0  0  0  0  0  0  0  0  0  0
    1.4487    1.6095    0.0000 C   0  0  0  0  0  0  0  0  0  0  0  0
    1.1654    0.1365    0.0000 C   0  0  0  0  0  0  0  0  0  0  0  0
   -3.0866   -1.3369    0.0000 C   0  0  0  0  0  0  0  0  0  0  0  0
   -4.5039   -1.8280    0.0000 C   0  0  0  0  0  0  0  0  0  0  0  0
  1  2  1  0
  2  3  1  0
  3  4  2  0
  3  5  1  0
  5  6  1  0
  6  7  1  0
  7  8  2  0
  7  9  1  0
  9 10  1  0
 10 11  2  0
 11 12  1  0
 12 13  1  0
 13 14  1  0
 14 15  1  0
 15 16  2  0
 16 17  1  0
 17 18  2  0
 18 19  1  0
 19 20  2  0
 20 21  1  0
 21 22  1  0
 22 23  1  0
 23 24  1  0
 24 25  1  0
 25 26  1  0
 26 27  1  0
 27 28  1  0
 28 29  1  0
 20 30  1  0
 30 31  1  0
 31 32  1  0
 30 33  2  0
 33 34  1  0
 12 35  2  0
 35 36  1  0
 36  9  2  0
 34 14  2  0
 34 18  1  0
 29 24  1  0
M  END
>  <ChEMBL_ID>  (99) 
CHEMBL3917723

>  <SMILES>  (99) 
COC(=O)CNC(=O)c1ccc(Nc2ncnc3cc(OCCN4CCCCC4)c(OC)cc23)cc1

>  <MPO_Hit_Score>  (99) 
0.49109999999999998

>  <Tanimoto_to_Gefitinib>  (99) 
0.48780000000000001

>  <MolecularWeight>  (99) 
493.56

>  <LogP>  (99) 
3.1499999999999999

>  <TPSA>  (99) 
114.91

$$$$
CHEMBL3092324
     RDKit          2D

 35 38  0  0  0  0  0  0  0  0999 V2000
   -9.4814   -2.5627    0.0000 C   0  0  0  0  0  0  0  0  0  0  0  0
   -8.0087   -2.8473    0.0000 S   0  0  0  0  0  0  0  0  0  0  0  0
   -7.7241   -1.3745    0.0000 O   0  0  0  0  0  0  0  0  0  0  0  0
   -8.2932   -4.3200    0.0000 O   0  0  0  0  0  0  0  0  0  0  0  0
   -6.5359   -3.1318    0.0000 C   0  0  0  0  0  0  0  0  0  0  0  0
   -5.5531   -1.9986    0.0000 C   0  0  0  0  0  0  0  0  0  0  0  0
   -4.0803   -2.2832    0.0000 N   0  0  0  0  0  0  0  0  0  0  0  0
   -3.0975   -1.1500    0.0000 C   0  0  0  0  0  0  0  0  0  0  0  0
   -3.5875    0.2677    0.0000 O   0  0  0  0  0  0  0  0  0  0  0  0
   -1.6248   -1.4345    0.0000 N   0  0  0  0  0  0  0  0  0  0  0  0
   -0.6420   -0.3014    0.0000 C   0  0  0  0  0  0  0  0  0  0  0  0
    0.8308   -0.5859    0.0000 C   0  0  0  0  0  0  0  0  0  0  0  0
    1.8136    0.5473    0.0000 C   0  0  0  0  0  0  0  0  0  0  0  0
    3.2864    0.2627    0.0000 C   0  0  0  0  0  0  0  0  0  0  0  0
    3.7763   -1.1550    0.0000 N   0  0  0  0  0  0  0  0  0  0  0  0
    5.2491   -1.4395    0.0000 C   0  0  0  0  0  0  0  0  0  0  0  0
    5.7390   -2.8573    0.0000 C   0  0  0  0  0  0  0  0  0  0  0  0
    7.2118   -3.1418    0.0000 C   0  0  0  0  0  0  0  0  0  0  0  0
    8.1946   -2.0086    0.0000 C   0  0  0  0  0  0  0  0  0  0  0  0
    9.6674   -2.2932    0.0000 F   0  0  0  0  0  0  0  0  0  0  0  0
    7.7047   -0.5909    0.0000 C   0  0  0  0  0  0  0  0  0  0  0  0
    8.6875    0.5423    0.0000 Cl  0  0  0  0  0  0  0  0  0  0  0  0
    6.2319   -0.3064    0.0000 C   0  0  0  0  0  0  0  0  0  0  0  0
    4.2692    1.3959    0.0000 N   0  0  0  0  0  0  0  0  0  0  0  0
    3.7792    2.8136    0.0000 C   0  0  0  0  0  0  0  0  0  0  0  0
    2.3064    3.0982    0.0000 N   0  0  0  0  0  0  0  0  0  0  0  0
    1.3236    1.9650    0.0000 C   0  0  0  0  0  0  0  0  0  0  0  0
   -0.1491    2.2495    0.0000 C   0  0  0  0  0  0  0  0  0  0  0  0
   -1.1319    1.1164    0.0000 C   0  0  0  0  0  0  0  0  0  0  0  0
   -2.6047    1.4009    0.0000 O   0  0  0  0  0  0  0  0  0  0  0  0
   -3.0946    2.8186    0.0000 C   0  0  0  0  0  0  0  0  0  0  0  0
   -4.5296    3.2556    0.0000 C   0  0  0  0  0  0  0  0  0  0  0  0
   -4.5575    4.7553    0.0000 C   0  0  0  0  0  0  0  0  0  0  0  0
   -3.1398    5.2453    0.0000 O   0  0  0  0  0  0  0  0  0  0  0  0
   -2.2357    4.0483    0.0000 C   0  0  0  0  0  0  0  0  0  0  0  0
  1  2  1  0
  2  3  2  0
  2  4  2  0
  2  5  1  0
  5  6  1  0
  6  7  1  0
  7  8  1  0
  8  9  2  0
  8 10  1  0
 10 11  1  0
 11 12  2  0
 12 13  1  0
 13 14  2  0
 14 15  1  0
 15 16  1  0
 16 17  1  0
 17 18  2  0
 18 19  1  0
 19 20  1  0
 19 21  2  0
 21 22  1  0
 21 23  1  0
 14 24  1  0
 24 25  2  0
 25 26  1  0
 26 27  2  0
 27 28  1  0
 28 29  2  0
 29 30  1  0
 31 30  1  1
 31 32  1  0
 32 33  1  0
 33 34  1  0
 34 35  1  0
 29 11  1  0
 27 13  1  0
 23 16  2  0
 35 31  1  0
M  END
>  <ChEMBL_ID>  (100) 
CHEMBL3092324

>  <SMILES>  (100) 
CS(=O)(=O)CCNC(=O)Nc1cc2c(Nc3ccc(F)c(Cl)c3)ncnc2cc1O[C@H]1CCOC1

>  <MPO_Hit_Score>  (100) 
0.49109999999999998

>  <Tanimoto_to_Gefitinib>  (100) 
0.44090000000000001

>  <MolecularWeight>  (100) 
523.97000000000003

>  <LogP>  (100) 
3.5

>  <TPSA>  (100) 
131.53999999999999

$$$$
CHEMBL3221558
     RDKit          2D

 27 29  0  0  0  0  0  0  0  0999 V2000
   -7.3137    2.8793    0.0000 C   0  0  0  0  0  0  0  0  0  0  0  0
   -6.3030    1.7709    0.0000 O   0  0  0  0  0  0  0  0  0  0  0  0
   -6.7575    0.3414    0.0000 C   0  0  0  0  0  0  0  0  0  0  0  0
   -8.2228    0.0203    0.0000 O   0  0  0  0  0  0  0  0  0  0  0  0
   -5.7468   -0.7669    0.0000 N   0  0  0  0  0  0  0  0  0  0  0  0
   -4.2816   -0.4458    0.0000 C   0  0  0  0  0  0  0  0  0  0  0  0
   -3.8271    0.9837    0.0000 C   0  0  0  0  0  0  0  0  0  0  0  0
   -2.3619    1.3048    0.0000 C   0  0  0  0  0  0  0  0  0  0  0  0
   -1.3512    0.1964    0.0000 C   0  0  0  0  0  0  0  0  0  0  0  0
    0.1141    0.5175    0.0000 N   0  0  0  0  0  0  0  0  0  0  0  0
    1.1248   -0.5908    0.0000 C   0  0  0  0  0  0  0  0  0  0  0  0
    0.6703   -2.0203    0.0000 N   0  0  0  0  0  0  0  0  0  0  0  0
    1.6810   -3.1287    0.0000 C   0  0  0  0  0  0  0  0  0  0  0  0
    3.1462   -2.8075    0.0000 N   0  0  0  0  0  0  0  0  0  0  0  0
    3.6007   -1.3781    0.0000 C   0  0  0  0  0  0  0  0  0  0  0  0
    5.0659   -1.0569    0.0000 C   0  0  0  0  0  0  0  0  0  0  0  0
    5.5205    0.3725    0.0000 C   0  0  0  0  0  0  0  0  0  0  0  0
    6.9857    0.6937    0.0000 O   0  0  0  0  0  0  0  0  0  0  0  0
    7.9964   -0.4147    0.0000 C   0  0  0  0  0  0  0  0  0  0  0  0
    4.5097    1.4809    0.0000 C   0  0  0  0  0  0  0  0  0  0  0  0
    4.9643    2.9104    0.0000 O   0  0  0  0  0  0  0  0  0  0  0  0
    3.9536    4.0187    0.0000 C   0  0  0  0  0  0  0  0  0  0  0  0
    3.0445    1.1598    0.0000 C   0  0  0  0  0  0  0  0  0  0  0  0
    2.5900   -0.2697    0.0000 C   0  0  0  0  0  0  0  0  0  0  0  0
   -1.8057   -1.2331    0.0000 C   0  0  0  0  0  0  0  0  0  0  0  0
   -3.2709   -1.5542    0.0000 C   0  0  0  0  0  0  0  0  0  0  0  0
   -3.7254   -2.9837    0.0000 Cl  0  0  0  0  0  0  0  0  0  0  0  0
  1  2  1  0
  2  3  1  0
  3  4  2  0
  3  5  1  0
  5  6  1  0
  6  7  1  0
  7  8  2  0
  8  9  1  0
  9 10  1  0
 10 11  1  0
 11 12  1  0
 12 13  2  0
 13 14  1  0
 14 15  2  0
 15 16  1  0
 16 17  2  0
 17 18  1  0
 18 19  1  0
 17 20  1  0
 20 21  1  0
 21 22  1  0
 20 23  2  0
 23 24  1  0
  9 25  2  0
 25 26  1  0
 26 27  1  0
 26  6  2  0
 24 11  2  0
 24 15  1  0
M  END
>  <ChEMBL_ID>  (101) 
CHEMBL3221558

>  <SMILES>  (101) 
COC(=O)Nc1ccc(Nc2ncnc3cc(OC)c(OC)cc23)cc1Cl

>  <MPO_Hit_Score>  (101) 
0.49030000000000001

>  <Tanimoto_to_Gefitinib>  (101) 
0.49299999999999999

>  <MolecularWeight>  (101) 
388.81

>  <LogP>  (101) 
4.2199999999999998

>  <TPSA>  (101) 
94.599999999999994

$$$$
CHEMBL2018751
     RDKit          2D

 27 29  0  0  0  0  0  0  0  0999 V2000
   -7.3137    2.8793    0.0000 C   0  0  0  0  0  0  0  0  0  0  0  0
   -6.3030    1.7709    0.0000 O   0  0  0  0  0  0  0  0  0  0  0  0
   -6.7575    0.3414    0.0000 C   0  0  0  0  0  0  0  0  0  0  0  0
   -8.2228    0.0203    0.0000 O   0  0  0  0  0  0  0  0  0  0  0  0
   -5.7468   -0.7669    0.0000 N   0  0  0  0  0  0  0  0  0  0  0  0
   -4.2816   -0.4458    0.0000 C   0  0  0  0  0  0  0  0  0  0  0  0
   -3.8271    0.9837    0.0000 C   0  0  0  0  0  0  0  0  0  0  0  0
   -2.3619    1.3048    0.0000 C   0  0  0  0  0  0  0  0  0  0  0  0
   -1.3512    0.1964    0.0000 C   0  0  0  0  0  0  0  0  0  0  0  0
    0.1141    0.5175    0.0000 N   0  0  0  0  0  0  0  0  0  0  0  0
    1.1248   -0.5908    0.0000 C   0  0  0  0  0  0  0  0  0  0  0  0
    0.6703   -2.0203    0.0000 N   0  0  0  0  0  0  0  0  0  0  0  0
    1.6810   -3.1287    0.0000 C   0  0  0  0  0  0  0  0  0  0  0  0
    3.1462   -2.8075    0.0000 N   0  0  0  0  0  0  0  0  0  0  0  0
    3.6007   -1.3781    0.0000 C   0  0  0  0  0  0  0  0  0  0  0  0
    5.0659   -1.0569    0.0000 C   0  0  0  0  0  0  0  0  0  0  0  0
    5.5205    0.3725    0.0000 C   0  0  0  0  0  0  0  0  0  0  0  0
    6.9857    0.6937    0.0000 O   0  0  0  0  0  0  0  0  0  0  0  0
    7.9964   -0.4147    0.0000 C   0  0  0  0  0  0  0  0  0  0  0  0
    4.5097    1.4809    0.0000 C   0  0  0  0  0  0  0  0  0  0  0  0
    4.9643    2.9104    0.0000 O   0  0  0  0  0  0  0  0  0  0  0  0
    3.9536    4.0187    0.0000 C   0  0  0  0  0  0  0  0  0  0  0  0
    3.0445    1.1598    0.0000 C   0  0  0  0  0  0  0  0  0  0  0  0
    2.5900   -0.2697    0.0000 C   0  0  0  0  0  0  0  0  0  0  0  0
   -1.8057   -1.2331    0.0000 C   0  0  0  0  0  0  0  0  0  0  0  0
   -3.2709   -1.5542    0.0000 C   0  0  0  0  0  0  0  0  0  0  0  0
   -3.7254   -2.9837    0.0000 Cl  0  0  0  0  0  0  0  0  0  0  0  0
  1  2  1  0
  2  3  1  0
  3  4  2  0
  3  5  1  0
  5  6  1  0
  6  7  1  0
  7  8  2  0
  8  9  1  0
  9 10  1  0
 10 11  1  0
 11 12  1  0
 12 13  2  0
 13 14  1  0
 14 15  2  0
 15 16  1  0
 16 17  2  0
 17 18  1  0
 18 19  1  0
 17 20  1  0
 20 21  1  0
 21 22  1  0
 20 23  2  0
 23 24  1  0
  9 25  2  0
 25 26  1  0
 26 27  1  0
 26  6  2  0
 24 11  2  0
 24 15  1  0
M  END
>  <ChEMBL_ID>  (102) 
CHEMBL2018751

>  <SMILES>  (102) 
COC(=O)Nc1ccc(Nc2ncnc3cc(OC)c(OC)cc23)cc1Cl

>  <MPO_Hit_Score>  (102) 
0.49030000000000001

>  <Tanimoto_to_Gefitinib>  (102) 
0.49299999999999999

>  <MolecularWeight>  (102) 
388.81

>  <LogP>  (102) 
4.2199999999999998

>  <TPSA>  (102) 
94.599999999999994

$$$$
CHEMBL2031299
     RDKit          2D

 29 32  0  0  0  0  0  0  0  0999 V2000
    8.6355   -0.4836    0.0000 Br  0  0  0  0  0  0  0  0  0  0  0  0
    7.4101   -1.3487    0.0000 C   0  0  0  0  0  0  0  0  0  0  0  0
    7.5466   -2.8425    0.0000 C   0  0  0  0  0  0  0  0  0  0  0  0
    6.3212   -3.7075    0.0000 C   0  0  0  0  0  0  0  0  0  0  0  0
    4.9593   -3.0788    0.0000 C   0  0  0  0  0  0  0  0  0  0  0  0
    4.8228   -1.5851    0.0000 C   0  0  0  0  0  0  0  0  0  0  0  0
    3.4609   -0.9563    0.0000 N   0  0  0  0  0  0  0  0  0  0  0  0
    3.3245    0.5374    0.0000 C   0  0  0  0  0  0  0  0  0  0  0  0
    4.5499    1.4025    0.0000 N   0  0  0  0  0  0  0  0  0  0  0  0
    4.4134    2.8963    0.0000 C   0  0  0  0  0  0  0  0  0  0  0  0
    3.0515    3.5250    0.0000 N   0  0  0  0  0  0  0  0  0  0  0  0
    1.8261    2.6599    0.0000 C   0  0  0  0  0  0  0  0  0  0  0  0
    0.4642    3.2886    0.0000 C   0  0  0  0  0  0  0  0  0  0  0  0
   -0.7612    2.4236    0.0000 C   0  0  0  0  0  0  0  0  0  0  0  0
   -0.6247    0.9298    0.0000 C   0  0  0  0  0  0  0  0  0  0  0  0
   -1.8501    0.0647    0.0000 N   0  0  0  0  0  0  0  0  0  0  0  0
   -3.2120    0.6934    0.0000 C   0  0  0  0  0  0  0  0  0  0  0  0
   -3.3485    2.1872    0.0000 O   0  0  0  0  0  0  0  0  0  0  0  0
   -4.4374   -0.1716    0.0000 C   0  0  0  0  0  0  0  0  0  0  0  0
   -5.7993    0.4571    0.0000 C   0  0  0  0  0  0  0  0  0  0  0  0
   -7.0247   -0.4080    0.0000 N   0  0  0  0  0  0  0  0  0  0  0  0
   -8.3866    0.2207    0.0000 C   0  0  0  0  0  0  0  0  0  0  0  0
   -9.6120   -0.6444    0.0000 C   0  0  0  0  0  0  0  0  0  0  0  0
   -9.4756   -2.1382    0.0000 O   0  0  0  0  0  0  0  0  0  0  0  0
   -8.1137   -2.7669    0.0000 C   0  0  0  0  0  0  0  0  0  0  0  0
   -6.8883   -1.9018    0.0000 C   0  0  0  0  0  0  0  0  0  0  0  0
    0.7372    0.3011    0.0000 C   0  0  0  0  0  0  0  0  0  0  0  0
    1.9626    1.1661    0.0000 C   0  0  0  0  0  0  0  0  0  0  0  0
    6.0482   -0.7200    0.0000 C   0  0  0  0  0  0  0  0  0  0  0  0
  1  2  1  0
  2  3  1  0
  3  4  2  0
  4  5  1  0
  5  6  2  0
  6  7  1  0
  7  8  1  0
  8  9  1  0
  9 10  2  0
 10 11  1  0
 11 12  2  0
 12 13  1  0
 13 14  2  0
 14 15  1  0
 15 16  1  0
 16 17  1  0
 17 18  2  0
 17 19  1  0
 19 20  1  0
 20 21  1  0
 21 22  1  0
 22 23  1  0
 23 24  1  0
 24 25  1  0
 25 26  1  0
 15 27  2  0
 27 28  1  0
  6 29  1  0
 29  2  2  0
 28  8  2  0
 28 12  1  0
 26 21  1  0
M  END
>  <ChEMBL_ID>  (103) 
CHEMBL2031299

>  <SMILES>  (103) 
O=C(CCN1CCOCC1)Nc1ccc2ncnc(Nc3cccc(Br)c3)c2c1

>  <MPO_Hit_Score>  (103) 
0.48630000000000001

>  <Tanimoto_to_Gefitinib>  (103) 
0.40960000000000002

>  <MolecularWeight>  (103) 
456.33999999999997

>  <LogP>  (103) 
3.7999999999999998

>  <TPSA>  (103) 
79.379999999999995

$$$$
CHEMBL3828269
     RDKit          2D

 25 28  0  0  0  0  0  0  0  0999 V2000
   -7.4783    2.4351    0.0000 C   0  0  0  0  0  0  0  0  0  0  0  0
   -6.0288    2.0493    0.0000 N   0  0  0  0  0  0  0  0  0  0  0  0
   -5.4889    0.6498    0.0000 C   0  0  0  0  0  0  0  0  0  0  0  0
   -3.9911    0.7308    0.0000 C   0  0  0  0  0  0  0  0  0  0  0  0
   -3.6053    2.1803    0.0000 C   0  0  0  0  0  0  0  0  0  0  0  0
   -4.8646    2.9952    0.0000 N   0  0  0  0  0  0  0  0  0  0  0  0
   -3.0452   -0.4334    0.0000 C   0  0  0  0  0  0  0  0  0  0  0  0
   -3.5805   -1.8347    0.0000 C   0  0  0  0  0  0  0  0  0  0  0  0
   -2.6346   -2.9988    0.0000 C   0  0  0  0  0  0  0  0  0  0  0  0
   -1.1534   -2.7617    0.0000 C   0  0  0  0  0  0  0  0  0  0  0  0
   -0.2075   -3.9259    0.0000 N   0  0  0  0  0  0  0  0  0  0  0  0
    1.2736   -3.6888    0.0000 C   0  0  0  0  0  0  0  0  0  0  0  0
    1.8089   -2.2876    0.0000 N   0  0  0  0  0  0  0  0  0  0  0  0
    0.8630   -1.1234    0.0000 C   0  0  0  0  0  0  0  0  0  0  0  0
    1.3982    0.2778    0.0000 N   0  0  0  0  0  0  0  0  0  0  0  0
    2.8794    0.5149    0.0000 C   0  0  0  0  0  0  0  0  0  0  0  0
    3.8253   -0.6492    0.0000 C   0  0  0  0  0  0  0  0  0  0  0  0
    5.3064   -0.4121    0.0000 C   0  0  0  0  0  0  0  0  0  0  0  0
    5.8417    0.9891    0.0000 C   0  0  0  0  0  0  0  0  0  0  0  0
    7.3228    1.2262    0.0000 F   0  0  0  0  0  0  0  0  0  0  0  0
    4.8958    2.1533    0.0000 C   0  0  0  0  0  0  0  0  0  0  0  0
    5.4310    3.5545    0.0000 Cl  0  0  0  0  0  0  0  0  0  0  0  0
    3.4146    1.9162    0.0000 C   0  0  0  0  0  0  0  0  0  0  0  0
   -0.6182   -1.3605    0.0000 C   0  0  0  0  0  0  0  0  0  0  0  0
   -1.5641   -0.1963    0.0000 C   0  0  0  0  0  0  0  0  0  0  0  0
  1  2  1  0
  2  3  1  0
  3  4  2  0
  4  5  1  0
  5  6  2  0
  4  7  1  0
  7  8  1  0
  8  9  2  0
  9 10  1  0
 10 11  2  0
 11 12  1  0
 12 13  2  0
 13 14  1  0
 14 15  1  0
 15 16  1  0
 16 17  1  0
 17 18  2  0
 18 19  1  0
 19 20  1  0
 19 21  2  0
 21 22  1  0
 21 23  1  0
 14 24  2  0
 24 25  1  0
  6  2  1  0
 25  7  2  0
 24 10  1  0
 23 16  2  0
M  END
>  <ChEMBL_ID>  (104) 
CHEMBL3828269

>  <SMILES>  (104) 
Cn1cc(-c2ccc3ncnc(Nc4ccc(F)c(Cl)c4)c3c2)cn1

>  <MPO_Hit_Score>  (104) 
0.4844

>  <Tanimoto_to_Gefitinib>  (104) 
0.47299999999999998

>  <MolecularWeight>  (104) 
353.79000000000002

>  <LogP>  (104) 
4.5700000000000003

>  <TPSA>  (104) 
55.630000000000003

$$$$
CHEMBL3774982
     RDKit          2D

 35 39  0  0  0  0  0  0  0  0999 V2000
    8.7124   -1.0204    0.0000 F   0  0  0  0  0  0  0  0  0  0  0  0
    7.3050   -1.5393    0.0000 C   0  0  0  0  0  0  0  0  0  0  0  0
    7.8239   -2.9467    0.0000 F   0  0  0  0  0  0  0  0  0  0  0  0
    6.7861   -0.1319    0.0000 F   0  0  0  0  0  0  0  0  0  0  0  0
    5.8976   -2.0582    0.0000 C   0  0  0  0  0  0  0  0  0  0  0  0
    5.6433   -3.5365    0.0000 C   0  0  0  0  0  0  0  0  0  0  0  0
    4.2359   -4.0554    0.0000 C   0  0  0  0  0  0  0  0  0  0  0  0
    3.0828   -3.0960    0.0000 C   0  0  0  0  0  0  0  0  0  0  0  0
    3.3371   -1.6177    0.0000 C   0  0  0  0  0  0  0  0  0  0  0  0
    2.1840   -0.6584    0.0000 N   0  0  0  0  0  0  0  0  0  0  0  0
    2.4383    0.8199    0.0000 C   0  0  0  0  0  0  0  0  0  0  0  0
    3.8457    1.3388    0.0000 N   0  0  0  0  0  0  0  0  0  0  0  0
    4.1000    2.8171    0.0000 C   0  0  0  0  0  0  0  0  0  0  0  0
    2.9469    3.7765    0.0000 N   0  0  0  0  0  0  0  0  0  0  0  0
    1.5396    3.2576    0.0000 C   0  0  0  0  0  0  0  0  0  0  0  0
    0.3865    4.2170    0.0000 C   0  0  0  0  0  0  0  0  0  0  0  0
   -1.0209    3.6980    0.0000 C   0  0  0  0  0  0  0  0  0  0  0  0
   -2.1740    4.6574    0.0000 O   0  0  0  0  0  0  0  0  0  0  0  0
   -3.5814    4.1385    0.0000 C   0  0  0  0  0  0  0  0  0  0  0  0
   -3.8357    2.6602    0.0000 C   0  0  0  0  0  0  0  0  0  0  0  0
   -5.2431    2.1413    0.0000 O   0  0  0  0  0  0  0  0  0  0  0  0
   -2.6826    1.7008    0.0000 N   0  0  0  0  0  0  0  0  0  0  0  0
   -2.9369    0.2226    0.0000 C   0  0  0  0  0  0  0  0  0  0  0  0
   -4.3443   -0.2964    0.0000 C   0  0  0  0  0  0  0  0  0  0  0  0
   -4.5986   -1.7746    0.0000 C   0  0  0  0  0  0  0  0  0  0  0  0
   -6.0060   -2.2936    0.0000 N   0  0  0  0  0  0  0  0  0  0  0  0
   -7.1590   -1.3342    0.0000 C   0  0  0  0  0  0  0  0  0  0  0  0
   -8.5664   -1.8531    0.0000 C   0  0  0  0  0  0  0  0  0  0  0  0
   -8.8207   -3.3314    0.0000 O   0  0  0  0  0  0  0  0  0  0  0  0
   -7.6677   -4.2908    0.0000 C   0  0  0  0  0  0  0  0  0  0  0  0
   -6.2603   -3.7718    0.0000 C   0  0  0  0  0  0  0  0  0  0  0  0
   -1.2752    2.2198    0.0000 C   0  0  0  0  0  0  0  0  0  0  0  0
   -0.1221    1.2604    0.0000 C   0  0  0  0  0  0  0  0  0  0  0  0
    1.2853    1.7793    0.0000 C   0  0  0  0  0  0  0  0  0  0  0  0
    4.7445   -1.0988    0.0000 C   0  0  0  0  0  0  0  0  0  0  0  0
  1  2  1  0
  2  3  1  0
  2  4  1  0
  2  5  1  0
  5  6  2  0
  6  7  1  0
  7  8  2  0
  8  9  1  0
  9 10  1  0
 10 11  1  0
 11 12  1  0
 12 13  2  0
 13 14  1  0
 14 15  2  0
 15 16  1  0
 16 17  2  0
 17 18  1  0
 18 19  1  0
 19 20  1  0
 20 21  2  0
 20 22  1  0
 22 23  1  0
 23 24  1  0
 24 25  1  0
 25 26  1  0
 26 27  1  0
 27 28  1  0
 28 29  1  0
 29 30  1  0
 30 31  1  0
 22 32  1  0
 32 33  2  0
 33 34  1  0
  9 35  2  0
 35  5  1  0
 34 11  2  0
 34 15  1  0
 32 17  1  0
 31 26  1  0
M  END
>  <ChEMBL_ID>  (105) 
CHEMBL3774982

>  <SMILES>  (105) 
O=C1COc2cc3ncnc(Nc4cccc(C(F)(F)F)c4)c3cc2N1CCCN1CCOCC1

>  <MPO_Hit_Score>  (105) 
0.48349999999999999

>  <Tanimoto_to_Gefitinib>  (105) 
0.41570000000000001

>  <MolecularWeight>  (105) 
487.48000000000002

>  <LogP>  (105) 
3.8399999999999999

>  <TPSA>  (105) 
79.819999999999993

$$$$
CHEMBL2031305
     RDKit          2D

 33 36  0  0  0  0  0  0  0  0999 V2000
   -4.3819   -5.1020    0.0000 C   0  0  0  0  0  0  0  0  0  0  0  0
   -3.1977   -4.1813    0.0000 C   0  0  0  0  0  0  0  0  0  0  0  0
   -1.8082   -4.7466    0.0000 O   0  0  0  0  0  0  0  0  0  0  0  0
   -0.6240   -3.8259    0.0000 C   0  0  0  0  0  0  0  0  0  0  0  0
    0.7654   -4.3911    0.0000 C   0  0  0  0  0  0  0  0  0  0  0  0
    1.9496   -3.4704    0.0000 C   0  0  0  0  0  0  0  0  0  0  0  0
    3.3391   -4.0357    0.0000 N   0  0  0  0  0  0  0  0  0  0  0  0
    4.5233   -3.1150    0.0000 C   0  0  0  0  0  0  0  0  0  0  0  0
    4.3181   -1.6291    0.0000 N   0  0  0  0  0  0  0  0  0  0  0  0
    2.9286   -1.0639    0.0000 C   0  0  0  0  0  0  0  0  0  0  0  0
    2.7234    0.4220    0.0000 N   0  0  0  0  0  0  0  0  0  0  0  0
    3.9076    1.3427    0.0000 C   0  0  0  0  0  0  0  0  0  0  0  0
    5.2971    0.7775    0.0000 C   0  0  0  0  0  0  0  0  0  0  0  0
    6.4813    1.6982    0.0000 C   0  0  0  0  0  0  0  0  0  0  0  0
    6.2760    3.1840    0.0000 C   0  0  0  0  0  0  0  0  0  0  0  0
    7.4603    4.1047    0.0000 F   0  0  0  0  0  0  0  0  0  0  0  0
    4.8866    3.7493    0.0000 C   0  0  0  0  0  0  0  0  0  0  0  0
    4.6814    5.2352    0.0000 Cl  0  0  0  0  0  0  0  0  0  0  0  0
    3.7024    2.8286    0.0000 C   0  0  0  0  0  0  0  0  0  0  0  0
    1.7444   -1.9845    0.0000 C   0  0  0  0  0  0  0  0  0  0  0  0
    0.3550   -1.4193    0.0000 C   0  0  0  0  0  0  0  0  0  0  0  0
   -0.8292   -2.3400    0.0000 C   0  0  0  0  0  0  0  0  0  0  0  0
   -2.2187   -1.7748    0.0000 N   0  0  0  0  0  0  0  0  0  0  0  0
   -2.4239   -0.2889    0.0000 C   0  0  0  0  0  0  0  0  0  0  0  0
   -1.2397    0.6318    0.0000 O   0  0  0  0  0  0  0  0  0  0  0  0
   -3.8133    0.2763    0.0000 C   0  0  0  0  0  0  0  0  0  0  0  0
   -4.0185    1.7622    0.0000 C   0  0  0  0  0  0  0  0  0  0  0  0
   -5.4080    2.3275    0.0000 N   0  0  0  0  0  0  0  0  0  0  0  0
   -5.6132    3.8133    0.0000 C   0  0  0  0  0  0  0  0  0  0  0  0
   -7.0026    4.3786    0.0000 C   0  0  0  0  0  0  0  0  0  0  0  0
   -8.1868    3.4579    0.0000 O   0  0  0  0  0  0  0  0  0  0  0  0
   -7.9816    1.9720    0.0000 C   0  0  0  0  0  0  0  0  0  0  0  0
   -6.5922    1.4068    0.0000 C   0  0  0  0  0  0  0  0  0  0  0  0
  1  2  1  0
  2  3  1  0
  3  4  1  0
  4  5  2  0
  5  6  1  0
  6  7  2  0
  7  8  1  0
  8  9  2  0
  9 10  1  0
 10 11  1  0
 11 12  1  0
 12 13  1  0
 13 14  2  0
 14 15  1  0
 15 16  1  0
 15 17  2  0
 17 18  1  0
 17 19  1  0
 10 20  2  0
 20 21  1  0
 21 22  2  0
 22 23  1  0
 23 24  1  0
 24 25  2  0
 24 26  1  0
 26 27  1  0
 27 28  1  0
 28 29  1  0
 29 30  1  0
 30 31  1  0
 31 32  1  0
 32 33  1  0
 22  4  1  0
 20  6  1  0
 19 12  2  0
 33 28  1  0
M  END
>  <ChEMBL_ID>  (106) 
CHEMBL2031305

>  <SMILES>  (106) 
CCOc1cc2ncnc(Nc3ccc(F)c(Cl)c3)c2cc1NC(=O)CCN1CCOCC1

>  <MPO_Hit_Score>  (106) 
0.48139999999999999

>  <Tanimoto_to_Gefitinib>  (106) 
0.62819999999999998

>  <MolecularWeight>  (106) 
473.94

>  <LogP>  (106) 
4.2300000000000004

>  <TPSA>  (106) 
88.609999999999999

$$$$
CHEMBL2425089
     RDKit          2D

 31 35  0  0  0  0  0  0  0  0999 V2000
   -3.1479   -5.0903    0.0000 C   0  0  0  0  0  0  0  0  0  0  0  0
   -1.6913   -5.4485    0.0000 O   0  0  0  0  0  0  0  0  0  0  0  0
   -0.6527   -4.3662    0.0000 C   0  0  0  0  0  0  0  0  0  0  0  0
    0.8038   -4.7244    0.0000 C   0  0  0  0  0  0  0  0  0  0  0  0
    1.8424   -3.6421    0.0000 C   0  0  0  0  0  0  0  0  0  0  0  0
    3.2990   -4.0003    0.0000 N   0  0  0  0  0  0  0  0  0  0  0  0
    4.3375   -2.9180    0.0000 C   0  0  0  0  0  0  0  0  0  0  0  0
    3.9194   -1.4774    0.0000 N   0  0  0  0  0  0  0  0  0  0  0  0
    2.4628   -1.1192    0.0000 C   0  0  0  0  0  0  0  0  0  0  0  0
    2.0448    0.3214    0.0000 N   0  0  0  0  0  0  0  0  0  0  0  0
    3.0833    1.4037    0.0000 C   0  0  0  0  0  0  0  0  0  0  0  0
    4.5399    1.0455    0.0000 C   0  0  0  0  0  0  0  0  0  0  0  0
    5.5784    2.1278    0.0000 C   0  0  0  0  0  0  0  0  0  0  0  0
    5.1604    3.5684    0.0000 C   0  0  0  0  0  0  0  0  0  0  0  0
    6.1989    4.6507    0.0000 F   0  0  0  0  0  0  0  0  0  0  0  0
    3.7038    3.9266    0.0000 C   0  0  0  0  0  0  0  0  0  0  0  0
    3.2857    5.3672    0.0000 Cl  0  0  0  0  0  0  0  0  0  0  0  0
    2.6652    2.8443    0.0000 C   0  0  0  0  0  0  0  0  0  0  0  0
    1.4243   -2.2015    0.0000 C   0  0  0  0  0  0  0  0  0  0  0  0
   -0.0323   -1.8433    0.0000 C   0  0  0  0  0  0  0  0  0  0  0  0
   -1.0708   -2.9256    0.0000 C   0  0  0  0  0  0  0  0  0  0  0  0
   -2.5274   -2.5674    0.0000 O   0  0  0  0  0  0  0  0  0  0  0  0
   -2.9455   -1.1269    0.0000 C   0  0  0  0  0  0  0  0  0  0  0  0
   -4.4021   -0.7686    0.0000 C   0  0  0  0  0  0  0  0  0  0  0  0
   -4.8201    0.6719    0.0000 N   0  0  0  0  0  0  0  0  0  0  0  0
   -4.0971    1.9862    0.0000 C   0  0  0  0  0  0  0  0  0  0  0  0
   -5.4114    2.7092    0.0000 C   0  0  0  0  0  0  0  0  0  0  0  0
   -4.6884    4.0234    0.0000 C   0  0  0  0  0  0  0  0  0  0  0  0
   -6.0026    4.7465    0.0000 S   0  0  0  0  0  0  0  0  0  0  0  0
   -6.7256    3.4322    0.0000 C   0  0  0  0  0  0  0  0  0  0  0  0
   -6.1344    1.3949    0.0000 C   0  0  0  0  0  0  0  0  0  0  0  0
  1  2  1  0
  2  3  1  0
  3  4  2  0
  4  5  1  0
  5  6  2  0
  6  7  1  0
  7  8  2  0
  8  9  1  0
  9 10  1  0
 10 11  1  0
 11 12  1  0
 12 13  2  0
 13 14  1  0
 14 15  1  0
 14 16  2  0
 16 17  1  0
 16 18  1  0
  9 19  2  0
 19 20  1  0
 20 21  2  0
 21 22  1  0
 22 23  1  0
 23 24  1  0
 24 25  1  0
 25 26  1  0
 26 27  1  0
 27 28  1  0
 28 29  1  0
 29 30  1  0
 27 31  1  0
 21  3  1  0
 19  5  1  0
 18 11  2  0
 31 25  1  0
 30 27  1  0
M  END
>  <ChEMBL_ID>  (107) 
CHEMBL2425089

>  <SMILES>  (107) 
COc1cc2ncnc(Nc3ccc(F)c(Cl)c3)c2cc1OCCN1CC2(CSC2)C1

>  <MPO_Hit_Score>  (107) 
0.48010000000000003

>  <Tanimoto_to_Gefitinib>  (107) 
0.67120000000000002

>  <MolecularWeight>  (107) 
460.95999999999998

>  <LogP>  (107) 
4.5999999999999996

>  <TPSA>  (107) 
59.509999999999998

$$$$
CHEMBL2408045
     RDKit          2D

 33 36  0  0  0  0  0  0  0  0999 V2000
  -10.0982    1.6144    0.0000 C   0  0  0  0  0  0  0  0  0  0  0  0
   -9.4722    0.2513    0.0000 N   0  0  0  0  0  0  0  0  0  0  0  0
   -7.9787    0.1120    0.0000 C   0  0  0  0  0  0  0  0  0  0  0  0
   -7.1112    1.3357    0.0000 O   0  0  0  0  0  0  0  0  0  0  0  0
   -7.3526   -1.2511    0.0000 C   0  0  0  0  0  0  0  0  0  0  0  0
   -5.8591   -1.3905    0.0000 N   0  0  0  0  0  0  0  0  0  0  0  0
   -4.9916   -0.1668    0.0000 C   0  0  0  0  0  0  0  0  0  0  0  0
   -3.4981   -0.3061    0.0000 C   0  0  0  0  0  0  0  0  0  0  0  0
   -2.8721   -1.6692    0.0000 C   0  0  0  0  0  0  0  0  0  0  0  0
   -3.7395   -2.8930    0.0000 C   0  0  0  0  0  0  0  0  0  0  0  0
   -5.2330   -2.7536    0.0000 C   0  0  0  0  0  0  0  0  0  0  0  0
   -1.3785   -1.8086    0.0000 O   0  0  0  0  0  0  0  0  0  0  0  0
   -0.5111   -0.5849    0.0000 C   0  0  0  0  0  0  0  0  0  0  0  0
    0.9824   -0.7242    0.0000 C   0  0  0  0  0  0  0  0  0  0  0  0
    1.8499    0.4995    0.0000 C   0  0  0  0  0  0  0  0  0  0  0  0
    3.3434    0.3601    0.0000 C   0  0  0  0  0  0  0  0  0  0  0  0
    3.9694   -1.0030    0.0000 N   0  0  0  0  0  0  0  0  0  0  0  0
    5.4629   -1.1423    0.0000 C   0  0  0  0  0  0  0  0  0  0  0  0
    6.0890   -2.5055    0.0000 C   0  0  0  0  0  0  0  0  0  0  0  0
    7.5825   -2.6448    0.0000 C   0  0  0  0  0  0  0  0  0  0  0  0
    8.4500   -1.4211    0.0000 C   0  0  0  0  0  0  0  0  0  0  0  0
    7.8239   -0.0580    0.0000 C   0  0  0  0  0  0  0  0  0  0  0  0
    8.6914    1.1658    0.0000 Cl  0  0  0  0  0  0  0  0  0  0  0  0
    6.3304    0.0814    0.0000 C   0  0  0  0  0  0  0  0  0  0  0  0
    5.7043    1.4445    0.0000 F   0  0  0  0  0  0  0  0  0  0  0  0
    4.2108    1.5839    0.0000 N   0  0  0  0  0  0  0  0  0  0  0  0
    3.5848    2.9470    0.0000 C   0  0  0  0  0  0  0  0  0  0  0  0
    2.0913    3.0863    0.0000 N   0  0  0  0  0  0  0  0  0  0  0  0
    1.2238    1.8626    0.0000 C   0  0  0  0  0  0  0  0  0  0  0  0
   -0.2697    2.0020    0.0000 C   0  0  0  0  0  0  0  0  0  0  0  0
   -1.1372    0.7782    0.0000 C   0  0  0  0  0  0  0  0  0  0  0  0
   -2.6307    0.9176    0.0000 O   0  0  0  0  0  0  0  0  0  0  0  0
   -3.2567    2.2807    0.0000 C   0  0  0  0  0  0  0  0  0  0  0  0
  1  2  1  0
  2  3  1  0
  3  4  2  0
  3  5  1  0
  5  6  1  0
  6  7  1  0
  7  8  1  0
  8  9  1  0
  9 10  1  0
 10 11  1  0
  9 12  1  0
 12 13  1  0
 13 14  2  0
 14 15  1  0
 15 16  2  0
 16 17  1  0
 17 18  1  0
 18 19  2  0
 19 20  1  0
 20 21  2  0
 21 22  1  0
 22 23  1  0
 22 24  2  0
 24 25  1  0
 16 26  1  0
 26 27  2  0
 27 28  1  0
 28 29  2  0
 29 30  1  0
 30 31  2  0
 31 32  1  0
 32 33  1  0
 11  6  1  0
 31 13  1  0
 29 15  1  0
 24 18  1  0
M  END
>  <ChEMBL_ID>  (108) 
CHEMBL2408045

>  <SMILES>  (108) 
CNC(=O)CN1CCC(Oc2cc3c(Nc4cccc(Cl)c4F)ncnc3cc2OC)CC1

>  <MPO_Hit_Score>  (108) 
0.4758

>  <Tanimoto_to_Gefitinib>  (108) 
0.42699999999999999

>  <MolecularWeight>  (108) 
473.94

>  <LogP>  (108) 
3.7599999999999998

>  <TPSA>  (108) 
88.609999999999999

$$$$
CHEMBL3221541
     RDKit          2D

 35 38  0  0  0  0  0  0  0  0999 V2000
   -9.4366    3.3487    0.0000 C   0  0  0  0  0  0  0  0  0  0  0  0
   -9.6953    1.8711    0.0000 C   0  0  0  0  0  0  0  0  0  0  0  0
   -8.5450    0.9084    0.0000 O   0  0  0  0  0  0  0  0  0  0  0  0
   -8.8036   -0.5691    0.0000 C   0  0  0  0  0  0  0  0  0  0  0  0
  -10.2125   -1.0839    0.0000 O   0  0  0  0  0  0  0  0  0  0  0  0
   -7.6534   -1.5319    0.0000 N   0  0  0  0  0  0  0  0  0  0  0  0
   -6.2445   -1.0171    0.0000 C   0  0  0  0  0  0  0  0  0  0  0  0
   -5.9858    0.4604    0.0000 C   0  0  0  0  0  0  0  0  0  0  0  0
   -4.5769    0.9752    0.0000 C   0  0  0  0  0  0  0  0  0  0  0  0
   -3.4267    0.0125    0.0000 C   0  0  0  0  0  0  0  0  0  0  0  0
   -2.0178    0.5272    0.0000 N   0  0  0  0  0  0  0  0  0  0  0  0
   -0.8675   -0.4355    0.0000 C   0  0  0  0  0  0  0  0  0  0  0  0
   -1.1261   -1.9130    0.0000 N   0  0  0  0  0  0  0  0  0  0  0  0
    0.0241   -2.8758    0.0000 C   0  0  0  0  0  0  0  0  0  0  0  0
    1.4330   -2.3610    0.0000 N   0  0  0  0  0  0  0  0  0  0  0  0
    1.6917   -0.8835    0.0000 C   0  0  0  0  0  0  0  0  0  0  0  0
    3.1006   -0.3687    0.0000 C   0  0  0  0  0  0  0  0  0  0  0  0
    3.3592    1.1088    0.0000 C   0  0  0  0  0  0  0  0  0  0  0  0
    4.7681    1.6236    0.0000 O   0  0  0  0  0  0  0  0  0  0  0  0
    5.9184    0.6609    0.0000 C   0  0  0  0  0  0  0  0  0  0  0  0
    7.3273    1.1756    0.0000 C   0  0  0  0  0  0  0  0  0  0  0  0
    8.4775    0.2129    0.0000 N   0  0  0  0  0  0  0  0  0  0  0  0
    8.2189   -1.2646    0.0000 C   0  0  0  0  0  0  0  0  0  0  0  0
    9.3691   -2.2274    0.0000 C   0  0  0  0  0  0  0  0  0  0  0  0
   10.7780   -1.7126    0.0000 O   0  0  0  0  0  0  0  0  0  0  0  0
   11.0367   -0.2351    0.0000 C   0  0  0  0  0  0  0  0  0  0  0  0
    9.8864    0.7277    0.0000 C   0  0  0  0  0  0  0  0  0  0  0  0
    2.2089    2.0716    0.0000 C   0  0  0  0  0  0  0  0  0  0  0  0
    2.4676    3.5491    0.0000 O   0  0  0  0  0  0  0  0  0  0  0  0
    1.3173    4.5119    0.0000 C   0  0  0  0  0  0  0  0  0  0  0  0
    0.8000    1.5568    0.0000 C   0  0  0  0  0  0  0  0  0  0  0  0
    0.5414    0.0793    0.0000 C   0  0  0  0  0  0  0  0  0  0  0  0
   -3.6853   -1.4651    0.0000 C   0  0  0  0  0  0  0  0  0  0  0  0
   -5.0942   -1.9799    0.0000 C   0  0  0  0  0  0  0  0  0  0  0  0
   -5.3528   -3.4574    0.0000 C   0  0  0  0  0  0  0  0  0  0  0  0
  1  2  1  0
  2  3  1  0
  3  4  1  0
  4  5  2  0
  4  6  1  0
  6  7  1  0
  7  8  1  0
  8  9  2  0
  9 10  1  0
 10 11  1  0
 11 12  1  0
 12 13  1  0
 13 14  2  0
 14 15  1  0
 15 16  2  0
 16 17  1  0
 17 18  2  0
 18 19  1  0
 19 20  1  0
 20 21  1  0
 21 22  1  0
 22 23  1  0
 23 24  1  0
 24 25  1  0
 25 26  1  0
 26 27  1  0
 18 28  1  0
 28 29  1  0
 29 30  1  0
 28 31  2  0
 31 32  1  0
 10 33  2  0
 33 34  1  0
 34 35  1  0
 34  7  2  0
 32 12  2  0
 32 16  1  0
 27 22  1  0
M  END
>  <ChEMBL_ID>  (109) 
CHEMBL3221541

>  <SMILES>  (109) 
CCOC(=O)Nc1ccc(Nc2ncnc3cc(OCCN4CCOCC4)c(OC)cc23)cc1C

>  <MPO_Hit_Score>  (109) 
0.47489999999999999

>  <Tanimoto_to_Gefitinib>  (109) 
0.58750000000000002

>  <MolecularWeight>  (109) 
481.55000000000001

>  <LogP>  (109) 
3.9700000000000002

>  <TPSA>  (109) 
107.06999999999999

$$$$
CHEMBL3930316
     RDKit          2D

 26 28  0  0  0  0  0  0  0  0999 V2000
   -7.3964   -2.7100    0.0000 C   0  0  0  0  0  0  0  0  0  0  0  0
   -5.9013   -2.8310    0.0000 C   0  0  0  0  0  0  0  0  0  0  0  0
   -5.0490   -1.5966    0.0000 C   0  0  0  0  0  0  0  0  0  0  0  0
   -5.6918   -0.2414    0.0000 O   0  0  0  0  0  0  0  0  0  0  0  0
   -3.5539   -1.7176    0.0000 N   0  0  0  0  0  0  0  0  0  0  0  0
   -2.7016   -0.4832    0.0000 C   0  0  0  0  0  0  0  0  0  0  0  0
   -1.2065   -0.6042    0.0000 C   0  0  0  0  0  0  0  0  0  0  0  0
   -0.3542    0.6302    0.0000 C   0  0  0  0  0  0  0  0  0  0  0  0
    1.1409    0.5092    0.0000 C   0  0  0  0  0  0  0  0  0  0  0  0
    1.7837   -0.8461    0.0000 N   0  0  0  0  0  0  0  0  0  0  0  0
    3.2789   -0.9670    0.0000 C   0  0  0  0  0  0  0  0  0  0  0  0
    3.9217   -2.3223    0.0000 C   0  0  0  0  0  0  0  0  0  0  0  0
    5.4168   -2.4432    0.0000 C   0  0  0  0  0  0  0  0  0  0  0  0
    6.2691   -1.2089    0.0000 C   0  0  0  0  0  0  0  0  0  0  0  0
    7.7642   -1.3298    0.0000 F   0  0  0  0  0  0  0  0  0  0  0  0
    5.6263    0.1464    0.0000 C   0  0  0  0  0  0  0  0  0  0  0  0
    6.4786    1.3807    0.0000 Cl  0  0  0  0  0  0  0  0  0  0  0  0
    4.1312    0.2673    0.0000 C   0  0  0  0  0  0  0  0  0  0  0  0
    1.9932    1.7436    0.0000 N   0  0  0  0  0  0  0  0  0  0  0  0
    1.3504    3.0988    0.0000 C   0  0  0  0  0  0  0  0  0  0  0  0
   -0.1447    3.2198    0.0000 N   0  0  0  0  0  0  0  0  0  0  0  0
   -0.9970    1.9854    0.0000 C   0  0  0  0  0  0  0  0  0  0  0  0
   -2.4921    2.1064    0.0000 C   0  0  0  0  0  0  0  0  0  0  0  0
   -3.3444    0.8720    0.0000 C   0  0  0  0  0  0  0  0  0  0  0  0
   -4.8395    0.9930    0.0000 O   0  0  0  0  0  0  0  0  0  0  0  0
   -5.4824    2.3483    0.0000 C   0  0  0  0  0  0  0  0  0  0  0  0
  1  2  1  0
  2  3  1  0
  3  4  2  0
  3  5  1  0
  5  6  1  0
  6  7  2  0
  7  8  1  0
  8  9  2  0
  9 10  1  0
 10 11  1  0
 11 12  1  0
 12 13  2  0
 13 14  1  0
 14 15  1  0
 14 16  2  0
 16 17  1  0
 16 18  1  0
  9 19  1  0
 19 20  2  0
 20 21  1  0
 21 22  2  0
 22 23  1  0
 23 24  2  0
 24 25  1  0
 25 26  1  0
 24  6  1  0
 22  8  1  0
 18 11  2  0
M  END
>  <ChEMBL_ID>  (110) 
CHEMBL3930316

>  <SMILES>  (110) 
CCC(=O)Nc1cc2c(Nc3ccc(F)c(Cl)c3)ncnc2cc1OC

>  <MPO_Hit_Score>  (110) 
0.47399999999999998

>  <Tanimoto_to_Gefitinib>  (110) 
0.54049999999999998

>  <MolecularWeight>  (110) 
374.80000000000001

>  <LogP>  (110) 
4.5199999999999996

>  <TPSA>  (110) 
76.140000000000001

$$$$
CHEMBL1277620
     RDKit          2D

 23 25  0  0  0  0  0  0  0  0999 V2000
   -6.3511    1.1473    0.0000 C   0  0  0  0  0  0  0  0  0  0  0  0
   -5.7104   -0.2090    0.0000 O   0  0  0  0  0  0  0  0  0  0  0  0
   -4.2155   -0.3323    0.0000 C   0  0  0  0  0  0  0  0  0  0  0  0
   -3.5748   -1.6886    0.0000 C   0  0  0  0  0  0  0  0  0  0  0  0
   -2.0799   -1.8119    0.0000 C   0  0  0  0  0  0  0  0  0  0  0  0
   -1.4393   -3.1682    0.0000 N   0  0  0  0  0  0  0  0  0  0  0  0
    0.0557   -3.2916    0.0000 C   0  0  0  0  0  0  0  0  0  0  0  0
    0.9099   -2.0586    0.0000 N   0  0  0  0  0  0  0  0  0  0  0  0
    0.2693   -0.7023    0.0000 C   0  0  0  0  0  0  0  0  0  0  0  0
    1.1235    0.5307    0.0000 N   0  0  0  0  0  0  0  0  0  0  0  0
    2.6184    0.4074    0.0000 C   0  0  0  0  0  0  0  0  0  0  0  0
    3.2591   -0.9489    0.0000 C   0  0  0  0  0  0  0  0  0  0  0  0
    4.7540   -1.0723    0.0000 C   0  0  0  0  0  0  0  0  0  0  0  0
    5.6083    0.1607    0.0000 C   0  0  0  0  0  0  0  0  0  0  0  0
    7.1032    0.0374    0.0000 Br  0  0  0  0  0  0  0  0  0  0  0  0
    4.9676    1.5170    0.0000 C   0  0  0  0  0  0  0  0  0  0  0  0
    3.4727    1.6404    0.0000 C   0  0  0  0  0  0  0  0  0  0  0  0
    2.8321    2.9967    0.0000 F   0  0  0  0  0  0  0  0  0  0  0  0
   -1.2257   -0.5789    0.0000 C   0  0  0  0  0  0  0  0  0  0  0  0
   -1.8663    0.7774    0.0000 C   0  0  0  0  0  0  0  0  0  0  0  0
   -3.3612    0.9007    0.0000 C   0  0  0  0  0  0  0  0  0  0  0  0
   -4.0019    2.2570    0.0000 O   0  0  0  0  0  0  0  0  0  0  0  0
   -3.1476    3.4900    0.0000 C   0  0  0  0  0  0  0  0  0  0  0  0
  1  2  1  0
  2  3  1  0
  3  4  2  0
  4  5  1  0
  5  6  2  0
  6  7  1  0
  7  8  2  0
  8  9  1  0
  9 10  1  0
 10 11  1  0
 11 12  1  0
 12 13  2  0
 13 14  1  0
 14 15  1  0
 14 16  2  0
 16 17  1  0
 17 18  1  0
  9 19  2  0
 19 20  1  0
 20 21  2  0
 21 22  1  0
 22 23  1  0
 21  3  1  0
 19  5  1  0
 17 11  2  0
M  END
>  <ChEMBL_ID>  (111) 
CHEMBL1277620

>  <SMILES>  (111) 
COc1cc2ncnc(Nc3ccc(Br)cc3F)c2cc1OC

>  <MPO_Hit_Score>  (111) 
0.47310000000000002

>  <Tanimoto_to_Gefitinib>  (111) 
0.42859999999999998

>  <MolecularWeight>  (111) 
378.19999999999999

>  <LogP>  (111) 
4.29

>  <TPSA>  (111) 
56.270000000000003

$$$$
CHEMBL215786
     RDKit          2D

 30 33  0  0  0  0  0  0  0  0999 V2000
   -4.3622   -3.1628    0.0000 C   0  0  0  0  0  0  0  0  0  0  0  0
   -3.1019   -3.9763    0.0000 O   0  0  0  0  0  0  0  0  0  0  0  0
   -1.7673   -3.2915    0.0000 C   0  0  0  0  0  0  0  0  0  0  0  0
   -0.5070   -4.1049    0.0000 C   0  0  0  0  0  0  0  0  0  0  0  0
    0.8276   -3.4202    0.0000 C   0  0  0  0  0  0  0  0  0  0  0  0
    2.0879   -4.2336    0.0000 N   0  0  0  0  0  0  0  0  0  0  0  0
    3.4224   -3.5489    0.0000 C   0  0  0  0  0  0  0  0  0  0  0  0
    3.4967   -2.0507    0.0000 N   0  0  0  0  0  0  0  0  0  0  0  0
    2.2364   -1.2373    0.0000 C   0  0  0  0  0  0  0  0  0  0  0  0
    2.3107    0.2609    0.0000 N   0  0  0  0  0  0  0  0  0  0  0  0
    3.6453    0.9456    0.0000 C   0  0  0  0  0  0  0  0  0  0  0  0
    4.9056    0.1322    0.0000 C   0  0  0  0  0  0  0  0  0  0  0  0
    6.2402    0.8169    0.0000 C   0  0  0  0  0  0  0  0  0  0  0  0
    6.3145    2.3151    0.0000 C   0  0  0  0  0  0  0  0  0  0  0  0
    7.6491    2.9998    0.0000 F   0  0  0  0  0  0  0  0  0  0  0  0
    5.0542    3.1285    0.0000 C   0  0  0  0  0  0  0  0  0  0  0  0
    5.1285    4.6267    0.0000 Cl  0  0  0  0  0  0  0  0  0  0  0  0
    3.7196    2.4438    0.0000 C   0  0  0  0  0  0  0  0  0  0  0  0
    0.9018   -1.9220    0.0000 C   0  0  0  0  0  0  0  0  0  0  0  0
   -0.3585   -1.1086    0.0000 C   0  0  0  0  0  0  0  0  0  0  0  0
   -1.6930   -1.7933    0.0000 C   0  0  0  0  0  0  0  0  0  0  0  0
   -2.9533   -0.9799    0.0000 O   0  0  0  0  0  0  0  0  0  0  0  0
   -2.8791    0.5182    0.0000 C   0  0  0  0  0  0  0  0  0  0  0  0
   -4.1394    1.3316    0.0000 C   0  0  0  0  0  0  0  0  0  0  0  0
   -4.0651    2.8298    0.0000 C   0  0  0  0  0  0  0  0  0  0  0  0
   -5.3254    3.6432    0.0000 C   0  0  0  0  0  0  0  0  0  0  0  0
   -6.6599    2.9585    0.0000 N   0  0  0  0  0  0  0  0  0  0  0  0
   -7.9202    3.7719    0.0000 C   0  0  0  0  0  0  0  0  0  0  0  0
   -6.7342    1.4603    0.0000 C   0  0  0  0  0  0  0  0  0  0  0  0
   -5.4739    0.6469    0.0000 C   0  0  0  0  0  0  0  0  0  0  0  0
  1  2  1  0
  2  3  1  0
  3  4  2  0
  4  5  1  0
  5  6  2  0
  6  7  1  0
  7  8  2  0
  8  9  1  0
  9 10  1  0
 10 11  1  0
 11 12  1  0
 12 13  2  0
 13 14  1  0
 14 15  1  0
 14 16  2  0
 16 17  1  0
 16 18  1  0
  9 19  2  0
 19 20  1  0
 20 21  2  0
 21 22  1  0
 22 23  1  0
 23 24  1  0
 24 25  1  0
 25 26  1  0
 26 27  1  0
 27 28  1  0
 27 29  1  0
 29 30  1  0
 21  3  1  0
 19  5  1  0
 18 11  2  0
 30 24  1  0
M  END
>  <ChEMBL_ID>  (112) 
CHEMBL215786

>  <SMILES>  (112) 
COc1cc2ncnc(Nc3ccc(F)c(Cl)c3)c2cc1OCC1CCN(C)CC1

>  <MPO_Hit_Score>  (112) 
0.47210000000000002

>  <Tanimoto_to_Gefitinib>  (112) 
0.66200000000000003

>  <MolecularWeight>  (112) 
430.91000000000003

>  <LogP>  (112) 
4.9000000000000004

>  <TPSA>  (112) 
59.509999999999998

$$$$
CHEMBL461967
     RDKit          2D

 32 35  0  0  0  0  0  0  0  0999 V2000
   -2.3678   -6.2399    0.0000 C   0  0  0  0  0  0  0  0  0  0  0  0
   -2.5035   -4.7461    0.0000 O   0  0  0  0  0  0  0  0  0  0  0  0
   -1.2777   -3.8816    0.0000 C   0  0  0  0  0  0  0  0  0  0  0  0
    0.0839   -4.5109    0.0000 C   0  0  0  0  0  0  0  0  0  0  0  0
    1.3097   -3.6464    0.0000 C   0  0  0  0  0  0  0  0  0  0  0  0
    2.6713   -4.2758    0.0000 N   0  0  0  0  0  0  0  0  0  0  0  0
    3.8971   -3.4113    0.0000 C   0  0  0  0  0  0  0  0  0  0  0  0
    3.7613   -1.9174    0.0000 N   0  0  0  0  0  0  0  0  0  0  0  0
    2.3998   -1.2881    0.0000 C   0  0  0  0  0  0  0  0  0  0  0  0
    2.2640    0.2058    0.0000 N   0  0  0  0  0  0  0  0  0  0  0  0
    3.4898    1.0703    0.0000 C   0  0  0  0  0  0  0  0  0  0  0  0
    4.8514    0.4409    0.0000 C   0  0  0  0  0  0  0  0  0  0  0  0
    6.0772    1.3054    0.0000 C   0  0  0  0  0  0  0  0  0  0  0  0
    5.9414    2.7993    0.0000 C   0  0  0  0  0  0  0  0  0  0  0  0
    7.1673    3.6638    0.0000 F   0  0  0  0  0  0  0  0  0  0  0  0
    4.5799    3.4286    0.0000 C   0  0  0  0  0  0  0  0  0  0  0  0
    4.4441    4.9225    0.0000 Cl  0  0  0  0  0  0  0  0  0  0  0  0
    3.3540    2.5641    0.0000 C   0  0  0  0  0  0  0  0  0  0  0  0
    1.1739   -2.1526    0.0000 C   0  0  0  0  0  0  0  0  0  0  0  0
   -0.1877   -1.5232    0.0000 C   0  0  0  0  0  0  0  0  0  0  0  0
   -1.4135   -2.3877    0.0000 C   0  0  0  0  0  0  0  0  0  0  0  0
   -2.7751   -1.7584    0.0000 C   0  0  0  0  0  0  0  0  0  0  0  0
   -2.9108   -0.2646    0.0000 N   0  0  0  0  0  0  0  0  0  0  0  0
   -4.2724    0.3648    0.0000 C   0  0  0  0  0  0  0  0  0  0  0  0
   -5.4983   -0.4997    0.0000 O   0  0  0  0  0  0  0  0  0  0  0  0
   -4.4082    1.8586    0.0000 C   0  0  0  0  0  0  0  0  0  0  0  0
   -3.1824    2.7231    0.0000 C   0  0  0  0  0  0  0  0  0  0  0  0
   -3.3181    4.2170    0.0000 C   0  0  0  0  0  0  0  0  0  0  0  0
   -4.6797    4.8463    0.0000 C   0  0  0  0  0  0  0  0  0  0  0  0
   -5.9056    3.9818    0.0000 C   0  0  0  0  0  0  0  0  0  0  0  0
   -5.7698    2.4880    0.0000 N   0  0  0  0  0  0  0  0  0  0  0  0
   -6.9956    1.6235    0.0000 C   0  0  0  0  0  0  0  0  0  0  0  0
  1  2  1  0
  2  3  1  0
  3  4  2  0
  4  5  1  0
  5  6  2  0
  6  7  1  0
  7  8  2  0
  8  9  1  0
  9 10  1  0
 10 11  1  0
 11 12  1  0
 12 13  2  0
 13 14  1  0
 14 15  1  0
 14 16  2  0
 16 17  1  0
 16 18  1  0
  9 19  2  0
 19 20  1  0
 20 21  2  0
 21 22  1  0
 22 23  1  0
 23 24  1  0
 24 25  2  0
 26 24  1  6
 26 27  1  0
 27 28  1  0
 28 29  1  0
 29 30  1  0
 30 31  1  0
 31 32  1  0
 21  3  1  0
 19  5  1  0
 18 11  2  0
 31 26  1  0
M  END
>  <ChEMBL_ID>  (113) 
CHEMBL461967

>  <SMILES>  (113) 
COc1cc2ncnc(Nc3ccc(F)c(Cl)c3)c2cc1CNC(=O)[C@H]1CCCCN1C

>  <MPO_Hit_Score>  (113) 
0.47210000000000002

>  <Tanimoto_to_Gefitinib>  (113) 
0.52380000000000004

>  <MolecularWeight>  (113) 
457.94

>  <LogP>  (113) 
4.2800000000000002

>  <TPSA>  (113) 
79.379999999999995

$$$$
CHEMBL29641
     RDKit          2D

 23 25  0  0  0  0  0  0  0  0999 V2000
   -6.3639    1.6487    0.0000 C   0  0  0  0  0  0  0  0  0  0  0  0
   -5.8531    0.2384    0.0000 O   0  0  0  0  0  0  0  0  0  0  0  0
   -4.3763   -0.0244    0.0000 C   0  0  0  0  0  0  0  0  0  0  0  0
   -3.8655   -1.4348    0.0000 C   0  0  0  0  0  0  0  0  0  0  0  0
   -2.3887   -1.6975    0.0000 C   0  0  0  0  0  0  0  0  0  0  0  0
   -1.8779   -3.1079    0.0000 N   0  0  0  0  0  0  0  0  0  0  0  0
   -0.4011   -3.3707    0.0000 C   0  0  0  0  0  0  0  0  0  0  0  0
    0.5649   -2.2231    0.0000 N   0  0  0  0  0  0  0  0  0  0  0  0
    0.0541   -0.8128    0.0000 C   0  0  0  0  0  0  0  0  0  0  0  0
    1.0201    0.3348    0.0000 N   0  0  0  0  0  0  0  0  0  0  0  0
    2.4969    0.0720    0.0000 C   0  0  0  0  0  0  0  0  0  0  0  0
    3.0077   -1.3383    0.0000 C   0  0  0  0  0  0  0  0  0  0  0  0
    4.4845   -1.6011    0.0000 C   0  0  0  0  0  0  0  0  0  0  0  0
    5.4505   -0.4536    0.0000 C   0  0  0  0  0  0  0  0  0  0  0  0
    4.9397    0.9568    0.0000 C   0  0  0  0  0  0  0  0  0  0  0  0
    5.9056    2.1043    0.0000 S   0  0  0  0  0  0  0  0  0  0  0  0
    7.3824    1.8415    0.0000 C   0  0  0  0  0  0  0  0  0  0  0  0
    3.4629    1.2196    0.0000 C   0  0  0  0  0  0  0  0  0  0  0  0
   -1.4227   -0.5500    0.0000 C   0  0  0  0  0  0  0  0  0  0  0  0
   -1.9335    0.8604    0.0000 C   0  0  0  0  0  0  0  0  0  0  0  0
   -3.4103    1.1231    0.0000 C   0  0  0  0  0  0  0  0  0  0  0  0
   -3.9211    2.5335    0.0000 O   0  0  0  0  0  0  0  0  0  0  0  0
   -2.9552    3.6810    0.0000 C   0  0  0  0  0  0  0  0  0  0  0  0
  1  2  1  0
  2  3  1  0
  3  4  2  0
  4  5  1  0
  5  6  2  0
  6  7  1  0
  7  8  2  0
  8  9  1  0
  9 10  1  0
 10 11  1  0
 11 12  1  0
 12 13  2  0
 13 14  1  0
 14 15  2  0
 15 16  1  0
 16 17  1  0
 15 18  1  0
  9 19  2  0
 19 20  1  0
 20 21  2  0
 21 22  1  0
 22 23  1  0
 21  3  1  0
 19  5  1  0
 18 11  2  0
M  END
>  <ChEMBL_ID>  (114) 
CHEMBL29641

>  <SMILES>  (114) 
COc1cc2ncnc(Nc3cccc(SC)c3)c2cc1OC

>  <MPO_Hit_Score>  (114) 
0.4713

>  <Tanimoto_to_Gefitinib>  (114) 
0.42249999999999999

>  <MolecularWeight>  (114) 
327.41000000000003

>  <LogP>  (114) 
4.1100000000000003

>  <TPSA>  (114) 
56.270000000000003

$$$$
CHEMBL213007
     RDKit          2D

 32 35  0  0  0  0  0  0  0  0999 V2000
   -3.4645   -4.8248    0.0000 C   0  0  0  0  0  0  0  0  0  0  0  0
   -2.0165   -5.2161    0.0000 O   0  0  0  0  0  0  0  0  0  0  0  0
   -0.9536   -4.1577    0.0000 C   0  0  0  0  0  0  0  0  0  0  0  0
    0.4945   -4.5490    0.0000 C   0  0  0  0  0  0  0  0  0  0  0  0
    1.5574   -3.4906    0.0000 C   0  0  0  0  0  0  0  0  0  0  0  0
    3.0055   -3.8819    0.0000 N   0  0  0  0  0  0  0  0  0  0  0  0
    4.0684   -2.8235    0.0000 C   0  0  0  0  0  0  0  0  0  0  0  0
    3.6832   -1.3738    0.0000 N   0  0  0  0  0  0  0  0  0  0  0  0
    2.2352   -0.9825    0.0000 C   0  0  0  0  0  0  0  0  0  0  0  0
    1.8500    0.4673    0.0000 N   0  0  0  0  0  0  0  0  0  0  0  0
    2.9129    1.5257    0.0000 C   0  0  0  0  0  0  0  0  0  0  0  0
    4.3610    1.1344    0.0000 C   0  0  0  0  0  0  0  0  0  0  0  0
    5.4239    2.1928    0.0000 C   0  0  0  0  0  0  0  0  0  0  0  0
    6.8720    1.8015    0.0000 Cl  0  0  0  0  0  0  0  0  0  0  0  0
    5.0387    3.6425    0.0000 C   0  0  0  0  0  0  0  0  0  0  0  0
    3.5907    4.0338    0.0000 C   0  0  0  0  0  0  0  0  0  0  0  0
    2.5278    2.9754    0.0000 C   0  0  0  0  0  0  0  0  0  0  0  0
    1.0797    3.3667    0.0000 F   0  0  0  0  0  0  0  0  0  0  0  0
    1.1723   -2.0409    0.0000 C   0  0  0  0  0  0  0  0  0  0  0  0
   -0.2758   -1.6496    0.0000 C   0  0  0  0  0  0  0  0  0  0  0  0
   -1.3387   -2.7080    0.0000 C   0  0  0  0  0  0  0  0  0  0  0  0
   -2.7868   -2.3167    0.0000 O   0  0  0  0  0  0  0  0  0  0  0  0
   -3.1719   -0.8670    0.0000 C   0  0  0  0  0  0  0  0  0  0  0  0
   -2.1090    0.1915    0.0000 C   0  0  0  0  0  0  0  0  0  0  0  0
   -2.4942    1.6412    0.0000 C   0  0  0  0  0  0  0  0  0  0  0  0
   -3.9422    2.0325    0.0000 N   0  0  0  0  0  0  0  0  0  0  0  0
   -5.0051    0.9741    0.0000 C   0  0  0  0  0  0  0  0  0  0  0  0
   -4.6200   -0.4757    0.0000 C   0  0  0  0  0  0  0  0  0  0  0  0
   -4.3274    3.4822    0.0000 S   0  0  0  0  0  0  0  0  0  0  0  0
   -5.7771    3.0970    0.0000 O   0  0  0  0  0  0  0  0  0  0  0  0
   -2.8777    3.8673    0.0000 O   0  0  0  0  0  0  0  0  0  0  0  0
   -4.7125    4.9319    0.0000 C   0  0  0  0  0  0  0  0  0  0  0  0
  1  2  1  0
  2  3  1  0
  3  4  2  0
  4  5  1  0
  5  6  2  0
  6  7  1  0
  7  8  2  0
  8  9  1  0
  9 10  1  0
 10 11  1  0
 11 12  1  0
 12 13  2  0
 13 14  1  0
 13 15  1  0
 15 16  2  0
 16 17  1  0
 17 18  1  0
  9 19  2  0
 19 20  1  0
 20 21  2  0
 21 22  1  0
 22 23  1  0
 23 24  1  0
 24 25  1  0
 25 26  1  0
 26 27  1  0
 27 28  1  0
 26 29  1  0
 29 30  2  0
 29 31  2  0
 29 32  1  0
 21  3  1  0
 19  5  1  0
 17 11  2  0
 28 23  1  0
M  END
>  <ChEMBL_ID>  (115) 
CHEMBL213007

>  <SMILES>  (115) 
COc1cc2ncnc(Nc3cc(Cl)ccc3F)c2cc1OC1CCN(S(C)(=O)=O)CC1

>  <MPO_Hit_Score>  (115) 
0.46899999999999997

>  <Tanimoto_to_Gefitinib>  (115) 
0.42859999999999998

>  <MolecularWeight>  (115) 
480.94999999999999

>  <LogP>  (115) 
3.98

>  <TPSA>  (115) 
93.650000000000006

$$$$
CHEMBL3944702
     RDKit          2D

 33 36  0  0  0  0  0  0  0  0999 V2000
   -7.3871    3.6442    0.0000 C   0  0  0  0  0  0  0  0  0  0  0  0
   -7.8468    2.2164    0.0000 O   0  0  0  0  0  0  0  0  0  0  0  0
   -6.8402    1.1043    0.0000 C   0  0  0  0  0  0  0  0  0  0  0  0
   -5.3738    1.4201    0.0000 C   0  0  0  0  0  0  0  0  0  0  0  0
   -4.3672    0.3080    0.0000 C   0  0  0  0  0  0  0  0  0  0  0  0
   -2.9008    0.6237    0.0000 N   0  0  0  0  0  0  0  0  0  0  0  0
   -1.8942   -0.4884    0.0000 C   0  0  0  0  0  0  0  0  0  0  0  0
   -2.3540   -1.9162    0.0000 N   0  0  0  0  0  0  0  0  0  0  0  0
   -1.3473   -3.0282    0.0000 C   0  0  0  0  0  0  0  0  0  0  0  0
    0.1191   -2.7125    0.0000 N   0  0  0  0  0  0  0  0  0  0  0  0
    0.5788   -1.2847    0.0000 C   0  0  0  0  0  0  0  0  0  0  0  0
    2.0452   -0.9690    0.0000 C   0  0  0  0  0  0  0  0  0  0  0  0
    2.5050    0.4588    0.0000 C   0  0  0  0  0  0  0  0  0  0  0  0
    3.9714    0.7745    0.0000 O   0  0  0  0  0  0  0  0  0  0  0  0
    4.9780   -0.3375    0.0000 C   0  0  0  0  0  0  0  0  0  0  0  0
    6.4444   -0.0218    0.0000 C   0  0  0  0  0  0  0  0  0  0  0  0
    7.4510   -1.1339    0.0000 C   0  0  0  0  0  0  0  0  0  0  0  0
    8.9174   -0.8182    0.0000 N   0  0  0  0  0  0  0  0  0  0  0  0
    9.9241   -1.9303    0.0000 C   0  0  0  0  0  0  0  0  0  0  0  0
    9.3772    0.6096    0.0000 C   0  0  0  0  0  0  0  0  0  0  0  0
    8.3706    1.7217    0.0000 C   0  0  0  0  0  0  0  0  0  0  0  0
    6.9042    1.4060    0.0000 O   0  0  0  0  0  0  0  0  0  0  0  0
    1.4984    1.5709    0.0000 C   0  0  0  0  0  0  0  0  0  0  0  0
    1.9582    2.9987    0.0000 O   0  0  0  0  0  0  0  0  0  0  0  0
    0.9515    4.1108    0.0000 C   0  0  0  0  0  0  0  0  0  0  0  0
    0.0320    1.2552    0.0000 C   0  0  0  0  0  0  0  0  0  0  0  0
   -0.4278   -0.1726    0.0000 C   0  0  0  0  0  0  0  0  0  0  0  0
   -4.8270   -1.1198    0.0000 C   0  0  0  0  0  0  0  0  0  0  0  0
   -3.8204   -2.2319    0.0000 O   0  0  0  0  0  0  0  0  0  0  0  0
   -4.2801   -3.6597    0.0000 C   0  0  0  0  0  0  0  0  0  0  0  0
   -6.2934   -1.4355    0.0000 C   0  0  0  0  0  0  0  0  0  0  0  0
   -7.3000   -0.3235    0.0000 C   0  0  0  0  0  0  0  0  0  0  0  0
   -8.7664   -0.6392    0.0000 Cl  0  0  0  0  0  0  0  0  0  0  0  0
  1  2  1  0
  2  3  1  0
  3  4  1  0
  4  5  2  0
  5  6  1  0
  6  7  1  0
  7  8  1  0
  8  9  2  0
  9 10  1  0
 10 11  2  0
 11 12  1  0
 12 13  2  0
 13 14  1  0
 14 15  1  0
 15 16  1  0
 16 17  1  0
 17 18  1  0
 18 19  1  0
 18 20  1  0
 20 21  1  0
 21 22  1  0
 13 23  1  0
 23 24  1  0
 24 25  1  0
 23 26  2  0
 26 27  1  0
  5 28  1  0
 28 29  1  0
 29 30  1  0
 28 31  2  0
 31 32  1  0
 32 33  1  0
 32  3  2  0
 27  7  2  0
 27 11  1  0
 22 16  1  0
M  END
>  <ChEMBL_ID>  (116) 
CHEMBL3944702

>  <SMILES>  (116) 
COc1cc(Nc2ncnc3cc(OCC4CN(C)CCO4)c(OC)cc23)c(OC)cc1Cl

>  <MPO_Hit_Score>  (116) 
0.46850000000000003

>  <Tanimoto_to_Gefitinib>  (116) 
0.46250000000000002

>  <MolecularWeight>  (116) 
474.94999999999999

>  <LogP>  (116) 
3.7599999999999998

>  <TPSA>  (116) 
87.200000000000003

$$$$
CHEMBL379017
     RDKit          2D

 32 35  0  0  0  0  0  0  0  0999 V2000
   -2.5556    6.1047    0.0000 C   0  0  0  0  0  0  0  0  0  0  0  0
   -2.7194    4.6136    0.0000 O   0  0  0  0  0  0  0  0  0  0  0  0
   -1.5101    3.7263    0.0000 C   0  0  0  0  0  0  0  0  0  0  0  0
   -1.6739    2.2352    0.0000 C   0  0  0  0  0  0  0  0  0  0  0  0
   -0.4645    1.3478    0.0000 C   0  0  0  0  0  0  0  0  0  0  0  0
   -0.6283   -0.1432    0.0000 O   0  0  0  0  0  0  0  0  0  0  0  0
   -2.0015   -0.7468    0.0000 C   0  0  0  0  0  0  0  0  0  0  0  0
   -3.2109    0.1405    0.0000 C   0  0  0  0  0  0  0  0  0  0  0  0
   -4.5840   -0.4631    0.0000 C   0  0  0  0  0  0  0  0  0  0  0  0
   -4.7478   -1.9541    0.0000 N   0  0  0  0  0  0  0  0  0  0  0  0
   -3.5385   -2.8415    0.0000 C   0  0  0  0  0  0  0  0  0  0  0  0
   -2.1653   -2.2379    0.0000 C   0  0  0  0  0  0  0  0  0  0  0  0
   -6.1210   -2.5578    0.0000 S   0  0  0  0  0  0  0  0  0  0  0  0
   -5.5173   -3.9310    0.0000 O   0  0  0  0  0  0  0  0  0  0  0  0
   -6.7247   -1.1846    0.0000 O   0  0  0  0  0  0  0  0  0  0  0  0
   -7.4942   -3.1615    0.0000 C   0  0  0  0  0  0  0  0  0  0  0  0
    0.9087    1.9515    0.0000 C   0  0  0  0  0  0  0  0  0  0  0  0
    2.1180    1.0641    0.0000 C   0  0  0  0  0  0  0  0  0  0  0  0
    1.9542   -0.4269    0.0000 N   0  0  0  0  0  0  0  0  0  0  0  0
    3.1636   -1.3143    0.0000 C   0  0  0  0  0  0  0  0  0  0  0  0
    2.9998   -2.8053    0.0000 C   0  0  0  0  0  0  0  0  0  0  0  0
    4.2091   -3.6927    0.0000 C   0  0  0  0  0  0  0  0  0  0  0  0
    5.5823   -3.0890    0.0000 C   0  0  0  0  0  0  0  0  0  0  0  0
    6.7917   -3.9764    0.0000 F   0  0  0  0  0  0  0  0  0  0  0  0
    5.7461   -1.5980    0.0000 C   0  0  0  0  0  0  0  0  0  0  0  0
    7.1193   -0.9943    0.0000 Cl  0  0  0  0  0  0  0  0  0  0  0  0
    4.5368   -0.7106    0.0000 C   0  0  0  0  0  0  0  0  0  0  0  0
    3.4912    1.6678    0.0000 N   0  0  0  0  0  0  0  0  0  0  0  0
    3.6550    3.1588    0.0000 C   0  0  0  0  0  0  0  0  0  0  0  0
    2.4456    4.0462    0.0000 N   0  0  0  0  0  0  0  0  0  0  0  0
    1.0725    3.4425    0.0000 C   0  0  0  0  0  0  0  0  0  0  0  0
   -0.1369    4.3299    0.0000 C   0  0  0  0  0  0  0  0  0  0  0  0
  1  2  1  0
  2  3  1  0
  3  4  1  0
  4  5  2  0
  5  6  1  0
  6  7  1  0
  7  8  1  0
  8  9  1  0
  9 10  1  0
 10 11  1  0
 11 12  1  0
 10 13  1  0
 13 14  2  0
 13 15  2  0
 13 16  1  0
  5 17  1  0
 17 18  2  0
 18 19  1  0
 19 20  1  0
 20 21  1  0
 21 22  2  0
 22 23  1  0
 23 24  1  0
 23 25  2  0
 25 26  1  0
 25 27  1  0
 18 28  1  0
 28 29  2  0
 29 30  1  0
 30 31  2  0
 31 32  1  0
 32  3  2  0
 12  7  1  0
 31 17  1  0
 27 20  2  0
M  END
>  <ChEMBL_ID>  (117) 
CHEMBL379017

>  <SMILES>  (117) 
COc1cc(OC2CCN(S(C)(=O)=O)CC2)c2c(Nc3ccc(F)c(Cl)c3)ncnc2c1

>  <MPO_Hit_Score>  (117) 
0.46400000000000002

>  <Tanimoto_to_Gefitinib>  (117) 
0.41860000000000003

>  <MolecularWeight>  (117) 
480.94999999999999

>  <LogP>  (117) 
3.98

>  <TPSA>  (117) 
93.650000000000006

$$$$
CHEMBL387265
     RDKit          2D

 32 35  0  0  0  0  0  0  0  0999 V2000
   -3.8542   -4.5573    0.0000 C   0  0  0  0  0  0  0  0  0  0  0  0
   -2.4557   -5.0998    0.0000 O   0  0  0  0  0  0  0  0  0  0  0  0
   -1.2867   -4.1599    0.0000 C   0  0  0  0  0  0  0  0  0  0  0  0
    0.1117   -4.7023    0.0000 C   0  0  0  0  0  0  0  0  0  0  0  0
    1.2808   -3.7624    0.0000 C   0  0  0  0  0  0  0  0  0  0  0  0
    2.6792   -4.3049    0.0000 N   0  0  0  0  0  0  0  0  0  0  0  0
    3.8483   -3.3650    0.0000 C   0  0  0  0  0  0  0  0  0  0  0  0
    3.6188   -1.8826    0.0000 N   0  0  0  0  0  0  0  0  0  0  0  0
    2.2203   -1.3402    0.0000 C   0  0  0  0  0  0  0  0  0  0  0  0
    1.9908    0.1422    0.0000 N   0  0  0  0  0  0  0  0  0  0  0  0
    3.1599    1.0821    0.0000 C   0  0  0  0  0  0  0  0  0  0  0  0
    4.5583    0.5396    0.0000 C   0  0  0  0  0  0  0  0  0  0  0  0
    5.7273    1.4795    0.0000 C   0  0  0  0  0  0  0  0  0  0  0  0
    5.4979    2.9619    0.0000 C   0  0  0  0  0  0  0  0  0  0  0  0
    4.0994    3.5043    0.0000 C   0  0  0  0  0  0  0  0  0  0  0  0
    3.8699    4.9867    0.0000 Cl  0  0  0  0  0  0  0  0  0  0  0  0
    2.9304    2.5644    0.0000 C   0  0  0  0  0  0  0  0  0  0  0  0
    1.5319    3.1069    0.0000 F   0  0  0  0  0  0  0  0  0  0  0  0
    1.0513   -2.2801    0.0000 C   0  0  0  0  0  0  0  0  0  0  0  0
   -0.3472   -1.7376    0.0000 C   0  0  0  0  0  0  0  0  0  0  0  0
   -1.5162   -2.6775    0.0000 C   0  0  0  0  0  0  0  0  0  0  0  0
   -2.9147   -2.1351    0.0000 O   0  0  0  0  0  0  0  0  0  0  0  0
   -3.1442   -0.6527    0.0000 C   0  0  0  0  0  0  0  0  0  0  0  0
   -1.9751    0.2872    0.0000 C   0  0  0  0  0  0  0  0  0  0  0  0
   -2.2046    1.7695    0.0000 C   0  0  0  0  0  0  0  0  0  0  0  0
   -3.6031    2.3120    0.0000 N   0  0  0  0  0  0  0  0  0  0  0  0
   -4.7721    1.3721    0.0000 C   0  0  0  0  0  0  0  0  0  0  0  0
   -4.5426   -0.1103    0.0000 C   0  0  0  0  0  0  0  0  0  0  0  0
   -3.8326    3.7943    0.0000 S   0  0  0  0  0  0  0  0  0  0  0  0
   -5.3149    3.5648    0.0000 O   0  0  0  0  0  0  0  0  0  0  0  0
   -2.3502    4.0238    0.0000 O   0  0  0  0  0  0  0  0  0  0  0  0
   -4.0620    5.2766    0.0000 C   0  0  0  0  0  0  0  0  0  0  0  0
  1  2  1  0
  2  3  1  0
  3  4  2  0
  4  5  1  0
  5  6  2  0
  6  7  1  0
  7  8  2  0
  8  9  1  0
  9 10  1  0
 10 11  1  0
 11 12  2  0
 12 13  1  0
 13 14  2  0
 14 15  1  0
 15 16  1  0
 15 17  2  0
 17 18  1  0
  9 19  2  0
 19 20  1  0
 20 21  2  0
 21 22  1  0
 22 23  1  0
 23 24  1  0
 24 25  1  0
 25 26  1  0
 26 27  1  0
 27 28  1  0
 26 29  1  0
 29 30  2  0
 29 31  2  0
 29 32  1  0
 21  3  1  0
 19  5  1  0
 17 11  1  0
 28 23  1  0
M  END
>  <ChEMBL_ID>  (118) 
CHEMBL387265

>  <SMILES>  (118) 
COc1cc2ncnc(Nc3cccc(Cl)c3F)c2cc1OC1CCN(S(C)(=O)=O)CC1

>  <MPO_Hit_Score>  (118) 
0.46400000000000002

>  <Tanimoto_to_Gefitinib>  (118) 
0.41860000000000003

>  <MolecularWeight>  (118) 
480.94999999999999

>  <LogP>  (118) 
3.98

>  <TPSA>  (118) 
93.650000000000006

$$$$
CHEMBL3623290
     RDKit          2D

 32 35  0  0  0  0  0  0  0  0999 V2000
   -3.8643   -3.3196    0.0000 C   0  0  0  0  0  0  0  0  0  0  0  0
   -2.5762   -4.0882    0.0000 O   0  0  0  0  0  0  0  0  0  0  0  0
   -1.2665   -3.3571    0.0000 C   0  0  0  0  0  0  0  0  0  0  0  0
    0.0216   -4.1257    0.0000 C   0  0  0  0  0  0  0  0  0  0  0  0
    1.3314   -3.3946    0.0000 C   0  0  0  0  0  0  0  0  0  0  0  0
    2.6194   -4.1633    0.0000 N   0  0  0  0  0  0  0  0  0  0  0  0
    3.9292   -3.4321    0.0000 C   0  0  0  0  0  0  0  0  0  0  0  0
    3.9508   -1.9322    0.0000 N   0  0  0  0  0  0  0  0  0  0  0  0
    2.6627   -1.1636    0.0000 C   0  0  0  0  0  0  0  0  0  0  0  0
    2.6844    0.3363    0.0000 N   0  0  0  0  0  0  0  0  0  0  0  0
    3.9941    1.0674    0.0000 C   0  0  0  0  0  0  0  0  0  0  0  0
    5.2822    0.2988    0.0000 C   0  0  0  0  0  0  0  0  0  0  0  0
    6.5919    1.0299    0.0000 C   0  0  0  0  0  0  0  0  0  0  0  0
    6.6136    2.5298    0.0000 C   0  0  0  0  0  0  0  0  0  0  0  0
    5.3255    3.2985    0.0000 C   0  0  0  0  0  0  0  0  0  0  0  0
    5.3472    4.7983    0.0000 Cl  0  0  0  0  0  0  0  0  0  0  0  0
    4.0158    2.5673    0.0000 C   0  0  0  0  0  0  0  0  0  0  0  0
    2.7277    3.3360    0.0000 F   0  0  0  0  0  0  0  0  0  0  0  0
    1.3530   -1.8947    0.0000 C   0  0  0  0  0  0  0  0  0  0  0  0
    0.0649   -1.1261    0.0000 C   0  0  0  0  0  0  0  0  0  0  0  0
   -1.2448   -1.8572    0.0000 C   0  0  0  0  0  0  0  0  0  0  0  0
   -2.5329   -1.0885    0.0000 O   0  0  0  0  0  0  0  0  0  0  0  0
   -2.5112    0.4113    0.0000 C   0  0  0  0  0  0  0  0  0  0  0  0
   -1.2015    1.1425    0.0000 O   0  0  0  0  0  0  0  0  0  0  0  0
   -3.7993    1.1800    0.0000 N   0  0  0  0  0  0  0  0  0  0  0  0
   -3.7776    2.6798    0.0000 C   0  0  0  0  0  0  0  0  0  0  0  0
   -5.0657    3.4485    0.0000 C   0  0  0  0  0  0  0  0  0  0  0  0
   -6.3754    2.7173    0.0000 N   0  0  0  0  0  0  0  0  0  0  0  0
   -7.6635    3.4860    0.0000 C   0  0  0  0  0  0  0  0  0  0  0  0
   -6.3971    1.2175    0.0000 C   0  0  0  0  0  0  0  0  0  0  0  0
   -5.1090    0.4488    0.0000 C   0  0  0  0  0  0  0  0  0  0  0  0
   -5.1307   -1.0510    0.0000 C   0  0  0  0  0  0  0  0  0  0  0  0
  1  2  1  0
  2  3  1  0
  3  4  2  0
  4  5  1  0
  5  6  2  0
  6  7  1  0
  7  8  2  0
  8  9  1  0
  9 10  1  0
 10 11  1  0
 11 12  2  0
 12 13  1  0
 13 14  2  0
 14 15  1  0
 15 16  1  0
 15 17  2  0
 17 18  1  0
  9 19  2  0
 19 20  1  0
 20 21  2  0
 21 22  1  0
 22 23  1  0
 23 24  2  0
 23 25  1  0
 25 26  1  0
 26 27  1  0
 27 28  1  0
 28 29  1  0
 28 30  1  0
 30 31  1  0
 31 32  1  6
 21  3  1  0
 19  5  1  0
 17 11  1  0
 31 25  1  0
M  END
>  <ChEMBL_ID>  (119) 
CHEMBL3623290

>  <SMILES>  (119) 
COc1cc2ncnc(Nc3cccc(Cl)c3F)c2cc1OC(=O)N1CCN(C)C[C@H]1C

>  <MPO_Hit_Score>  (119) 
0.46379999999999999

>  <Tanimoto_to_Gefitinib>  (119) 
0.41570000000000001

>  <MolecularWeight>  (119) 
459.91000000000003

>  <LogP>  (119) 
4.3099999999999996

>  <TPSA>  (119) 
79.819999999999993

$$$$
CHEMBL3221546
     RDKit          2D

 35 38  0  0  0  0  0  0  0  0999 V2000
   -9.4366    3.3487    0.0000 C   0  0  0  0  0  0  0  0  0  0  0  0
   -9.6953    1.8711    0.0000 C   0  0  0  0  0  0  0  0  0  0  0  0
   -8.5450    0.9084    0.0000 O   0  0  0  0  0  0  0  0  0  0  0  0
   -8.8036   -0.5691    0.0000 C   0  0  0  0  0  0  0  0  0  0  0  0
  -10.2125   -1.0839    0.0000 O   0  0  0  0  0  0  0  0  0  0  0  0
   -7.6534   -1.5319    0.0000 N   0  0  0  0  0  0  0  0  0  0  0  0
   -6.2445   -1.0171    0.0000 C   0  0  0  0  0  0  0  0  0  0  0  0
   -5.9858    0.4604    0.0000 C   0  0  0  0  0  0  0  0  0  0  0  0
   -4.5769    0.9752    0.0000 C   0  0  0  0  0  0  0  0  0  0  0  0
   -3.4267    0.0125    0.0000 C   0  0  0  0  0  0  0  0  0  0  0  0
   -2.0178    0.5272    0.0000 N   0  0  0  0  0  0  0  0  0  0  0  0
   -0.8675   -0.4355    0.0000 C   0  0  0  0  0  0  0  0  0  0  0  0
   -1.1261   -1.9130    0.0000 N   0  0  0  0  0  0  0  0  0  0  0  0
    0.0241   -2.8758    0.0000 C   0  0  0  0  0  0  0  0  0  0  0  0
    1.4330   -2.3610    0.0000 N   0  0  0  0  0  0  0  0  0  0  0  0
    1.6917   -0.8835    0.0000 C   0  0  0  0  0  0  0  0  0  0  0  0
    3.1006   -0.3687    0.0000 C   0  0  0  0  0  0  0  0  0  0  0  0
    3.3592    1.1088    0.0000 C   0  0  0  0  0  0  0  0  0  0  0  0
    4.7681    1.6236    0.0000 O   0  0  0  0  0  0  0  0  0  0  0  0
    5.9184    0.6609    0.0000 C   0  0  0  0  0  0  0  0  0  0  0  0
    7.3273    1.1756    0.0000 C   0  0  0  0  0  0  0  0  0  0  0  0
    8.4775    0.2129    0.0000 N   0  0  0  0  0  0  0  0  0  0  0  0
    8.2189   -1.2646    0.0000 C   0  0  0  0  0  0  0  0  0  0  0  0
    9.3691   -2.2274    0.0000 C   0  0  0  0  0  0  0  0  0  0  0  0
   10.7780   -1.7126    0.0000 O   0  0  0  0  0  0  0  0  0  0  0  0
   11.0367   -0.2351    0.0000 C   0  0  0  0  0  0  0  0  0  0  0  0
    9.8864    0.7277    0.0000 C   0  0  0  0  0  0  0  0  0  0  0  0
    2.2089    2.0716    0.0000 C   0  0  0  0  0  0  0  0  0  0  0  0
    2.4676    3.5491    0.0000 O   0  0  0  0  0  0  0  0  0  0  0  0
    1.3173    4.5119    0.0000 C   0  0  0  0  0  0  0  0  0  0  0  0
    0.8000    1.5568    0.0000 C   0  0  0  0  0  0  0  0  0  0  0  0
    0.5414    0.0793    0.0000 C   0  0  0  0  0  0  0  0  0  0  0  0
   -3.6853   -1.4651    0.0000 C   0  0  0  0  0  0  0  0  0  0  0  0
   -5.0942   -1.9799    0.0000 C   0  0  0  0  0  0  0  0  0  0  0  0
   -5.3528   -3.4574    0.0000 Cl  0  0  0  0  0  0  0  0  0  0  0  0
  1  2  1  0
  2  3  1  0
  3  4  1  0
  4  5  2  0
  4  6  1  0
  6  7  1  0
  7  8  1  0
  8  9  2  0
  9 10  1  0
 10 11  1  0
 11 12  1  0
 12 13  1  0
 13 14  2  0
 14 15  1  0
 15 16  2  0
 16 17  1  0
 17 18  2  0
 18 19  1  0
 19 20  1  0
 20 21  1  0
 21 22  1  0
 22 23  1  0
 23 24  1  0
 24 25  1  0
 25 26  1  0
 26 27  1  0
 18 28  1  0
 28 29  1  0
 29 30  1  0
 28 31  2  0
 31 32  1  0
 10 33  2  0
 33 34  1  0
 34 35  1  0
 34  7  2  0
 32 12  2  0
 32 16  1  0
 27 22  1  0
M  END
>  <ChEMBL_ID>  (120) 
CHEMBL3221546

>  <SMILES>  (120) 
CCOC(=O)Nc1ccc(Nc2ncnc3cc(OCCN4CCOCC4)c(OC)cc23)cc1Cl

>  <MPO_Hit_Score>  (120) 
0.46210000000000001

>  <Tanimoto_to_Gefitinib>  (120) 
0.6623

>  <MolecularWeight>  (120) 
501.97000000000003

>  <LogP>  (120) 
4.3099999999999996

>  <TPSA>  (120) 
107.06999999999999

$$$$
CHEMBL316064
     RDKit          2D

 25 27  0  0  0  0  0  0  0  0999 V2000
   -6.6641    2.0186    0.0000 C   0  0  0  0  0  0  0  0  0  0  0  0
   -6.2794    0.5687    0.0000 O   0  0  0  0  0  0  0  0  0  0  0  0
   -4.8315    0.1769    0.0000 C   0  0  0  0  0  0  0  0  0  0  0  0
   -4.4469   -1.2729    0.0000 C   0  0  0  0  0  0  0  0  0  0  0  0
   -2.9989   -1.6647    0.0000 C   0  0  0  0  0  0  0  0  0  0  0  0
   -2.6143   -3.1146    0.0000 N   0  0  0  0  0  0  0  0  0  0  0  0
   -1.1663   -3.5063    0.0000 C   0  0  0  0  0  0  0  0  0  0  0  0
   -0.1031   -2.4483    0.0000 N   0  0  0  0  0  0  0  0  0  0  0  0
   -0.4877   -0.9985    0.0000 C   0  0  0  0  0  0  0  0  0  0  0  0
    0.5755    0.0596    0.0000 N   0  0  0  0  0  0  0  0  0  0  0  0
    2.0235   -0.3322    0.0000 C   0  0  0  0  0  0  0  0  0  0  0  0
    2.4081   -1.7821    0.0000 C   0  0  0  0  0  0  0  0  0  0  0  0
    3.8561   -2.1738    0.0000 C   0  0  0  0  0  0  0  0  0  0  0  0
    4.9193   -1.1158    0.0000 C   0  0  0  0  0  0  0  0  0  0  0  0
    4.5347    0.3340    0.0000 C   0  0  0  0  0  0  0  0  0  0  0  0
    3.0867    0.7258    0.0000 C   0  0  0  0  0  0  0  0  0  0  0  0
    5.5979    1.3921    0.0000 C   0  0  0  0  0  0  0  0  0  0  0  0
    6.6612    2.4501    0.0000 F   0  0  0  0  0  0  0  0  0  0  0  0
    6.6560    0.3288    0.0000 F   0  0  0  0  0  0  0  0  0  0  0  0
    4.5399    2.4554    0.0000 F   0  0  0  0  0  0  0  0  0  0  0  0
   -1.9357   -0.6067    0.0000 C   0  0  0  0  0  0  0  0  0  0  0  0
   -2.3203    0.8432    0.0000 C   0  0  0  0  0  0  0  0  0  0  0  0
   -3.7682    1.2350    0.0000 C   0  0  0  0  0  0  0  0  0  0  0  0
   -4.1529    2.6848    0.0000 O   0  0  0  0  0  0  0  0  0  0  0  0
   -3.0896    3.7429    0.0000 C   0  0  0  0  0  0  0  0  0  0  0  0
  1  2  1  0
  2  3  1  0
  3  4  2  0
  4  5  1  0
  5  6  2  0
  6  7  1  0
  7  8  2  0
  8  9  1  0
  9 10  1  0
 10 11  1  0
 11 12  1  0
 12 13  2  0
 13 14  1  0
 14 15  2  0
 15 16  1  0
 15 17  1  0
 17 18  1  0
 17 19  1  0
 17 20  1  0
  9 21  2  0
 21 22  1  0
 22 23  2  0
 23 24  1  0
 24 25  1  0
 23  3  1  0
 21  5  1  0
 16 11  2  0
M  END
>  <ChEMBL_ID>  (121) 
CHEMBL316064

>  <SMILES>  (121) 
COc1cc2ncnc(Nc3cccc(C(F)(F)F)c3)c2cc1OC

>  <MPO_Hit_Score>  (121) 
0.46079999999999999

>  <Tanimoto_to_Gefitinib>  (121) 
0.43659999999999999

>  <MolecularWeight>  (121) 
349.31

>  <LogP>  (121) 
4.4100000000000001

>  <TPSA>  (121) 
56.270000000000003

$$$$
CHEMBL3806222
     RDKit          2D

 30 34  0  0  0  0  0  0  0  0999 V2000
    8.3738    0.6761    0.0000 F   0  0  0  0  0  0  0  0  0  0  0  0
    6.9153    0.3257    0.0000 C   0  0  0  0  0  0  0  0  0  0  0  0
    6.4896   -1.1126    0.0000 C   0  0  0  0  0  0  0  0  0  0  0  0
    5.0311   -1.4631    0.0000 C   0  0  0  0  0  0  0  0  0  0  0  0
    3.9983   -0.3753    0.0000 C   0  0  0  0  0  0  0  0  0  0  0  0
    2.5399   -0.7257    0.0000 N   0  0  0  0  0  0  0  0  0  0  0  0
    1.5071    0.3621    0.0000 C   0  0  0  0  0  0  0  0  0  0  0  0
    1.9328    1.8005    0.0000 N   0  0  0  0  0  0  0  0  0  0  0  0
    0.9001    2.8883    0.0000 C   0  0  0  0  0  0  0  0  0  0  0  0
   -0.5584    2.5379    0.0000 N   0  0  0  0  0  0  0  0  0  0  0  0
   -0.9841    1.0995    0.0000 C   0  0  0  0  0  0  0  0  0  0  0  0
   -2.4426    0.7491    0.0000 C   0  0  0  0  0  0  0  0  0  0  0  0
   -2.8684   -0.6892    0.0000 C   0  0  0  0  0  0  0  0  0  0  0  0
   -4.3268   -1.0397    0.0000 O   0  0  0  0  0  0  0  0  0  0  0  0
   -5.3596    0.0482    0.0000 C   0  0  0  0  0  0  0  0  0  0  0  0
   -4.9339    1.4865    0.0000 C   0  0  0  0  0  0  0  0  0  0  0  0
   -5.9666    2.5743    0.0000 C   0  0  0  0  0  0  0  0  0  0  0  0
   -7.4251    2.2239    0.0000 O   0  0  0  0  0  0  0  0  0  0  0  0
   -7.8508    0.7856    0.0000 C   0  0  0  0  0  0  0  0  0  0  0  0
   -6.8181   -0.3023    0.0000 C   0  0  0  0  0  0  0  0  0  0  0  0
   -1.8356   -1.7771    0.0000 C   0  0  0  0  0  0  0  0  0  0  0  0
   -2.2613   -3.2154    0.0000 O   0  0  0  0  0  0  0  0  0  0  0  0
   -1.2286   -4.3033    0.0000 C   0  0  0  0  0  0  0  0  0  0  0  0
    0.2299   -3.9528    0.0000 C   0  0  0  0  0  0  0  0  0  0  0  0
    0.6556   -2.5145    0.0000 O   0  0  0  0  0  0  0  0  0  0  0  0
   -0.3771   -1.4266    0.0000 C   0  0  0  0  0  0  0  0  0  0  0  0
    0.0486    0.0117    0.0000 C   0  0  0  0  0  0  0  0  0  0  0  0
    4.4241    1.0631    0.0000 C   0  0  0  0  0  0  0  0  0  0  0  0
    5.8826    1.4135    0.0000 C   0  0  0  0  0  0  0  0  0  0  0  0
    6.3083    2.8518    0.0000 Cl  0  0  0  0  0  0  0  0  0  0  0  0
  1  2  1  0
  2  3  1  0
  3  4  2  0
  4  5  1  0
  5  6  1  0
  6  7  1  0
  7  8  1  0
  8  9  2  0
  9 10  1  0
 10 11  2  0
 11 12  1  0
 12 13  2  0
 13 14  1  0
 14 15  1  0
 15 16  1  0
 16 17  1  0
 17 18  1  0
 18 19  1  0
 19 20  1  0
 13 21  1  0
 21 22  1  0
 22 23  1  0
 23 24  1  0
 24 25  1  0
 25 26  1  0
 26 27  1  0
  5 28  2  0
 28 29  1  0
 29 30  1  0
 29  2  2  0
 27  7  2  0
 27 11  1  0
 20 15  1  0
 26 21  2  0
M  END
>  <ChEMBL_ID>  (122) 
CHEMBL3806222

>  <SMILES>  (122) 
Fc1ccc(Nc2ncnc3cc(OC4CCOCC4)c4c(c23)OCCO4)cc1Cl

>  <MPO_Hit_Score>  (122) 
0.4602

>  <Tanimoto_to_Gefitinib>  (122) 
0.45569999999999999

>  <MolecularWeight>  (122) 
431.85000000000002

>  <LogP>  (122) 
4.4900000000000002

>  <TPSA>  (122) 
74.730000000000004

$$$$
CHEMBL281872
     RDKit          2D

 29 32  0  0  0  0  0  0  0  0999 V2000
    2.7731    3.9342    0.0000 C   0  0  0  0  0  0  0  0  0  0  0  0
    1.3269    3.5362    0.0000 O   0  0  0  0  0  0  0  0  0  0  0  0
    0.9484    2.0847    0.0000 C   0  0  0  0  0  0  0  0  0  0  0  0
   -0.4978    1.6867    0.0000 C   0  0  0  0  0  0  0  0  0  0  0  0
   -0.8762    0.2352    0.0000 C   0  0  0  0  0  0  0  0  0  0  0  0
   -2.3225   -0.1628    0.0000 C   0  0  0  0  0  0  0  0  0  0  0  0
   -3.3903    0.8907    0.0000 N   0  0  0  0  0  0  0  0  0  0  0  0
   -4.8365    0.4927    0.0000 C   0  0  0  0  0  0  0  0  0  0  0  0
   -5.9043    1.5461    0.0000 C   0  0  0  0  0  0  0  0  0  0  0  0
   -7.3505    1.1481    0.0000 C   0  0  0  0  0  0  0  0  0  0  0  0
   -7.7290   -0.3033    0.0000 C   0  0  0  0  0  0  0  0  0  0  0  0
   -9.1752   -0.7014    0.0000 Br  0  0  0  0  0  0  0  0  0  0  0  0
   -6.6612   -1.3568    0.0000 C   0  0  0  0  0  0  0  0  0  0  0  0
   -5.2149   -0.9588    0.0000 C   0  0  0  0  0  0  0  0  0  0  0  0
   -4.1471   -2.0123    0.0000 F   0  0  0  0  0  0  0  0  0  0  0  0
   -2.7009   -1.6143    0.0000 N   0  0  0  0  0  0  0  0  0  0  0  0
   -1.6331   -2.6677    0.0000 C   0  0  0  0  0  0  0  0  0  0  0  0
   -0.1869   -2.2697    0.0000 N   0  0  0  0  0  0  0  0  0  0  0  0
    0.1916   -0.8182    0.0000 C   0  0  0  0  0  0  0  0  0  0  0  0
    1.6378   -0.4202    0.0000 C   0  0  0  0  0  0  0  0  0  0  0  0
    2.0162    1.0312    0.0000 C   0  0  0  0  0  0  0  0  0  0  0  0
    3.4625    1.4292    0.0000 O   0  0  0  0  0  0  0  0  0  0  0  0
    4.5303    0.3758    0.0000 C   0  0  0  0  0  0  0  0  0  0  0  0
    5.9765    0.7738    0.0000 C   0  0  0  0  0  0  0  0  0  0  0  0
    7.0443   -0.2797    0.0000 N   0  0  0  0  0  0  0  0  0  0  0  0
    8.5242   -0.0350    0.0000 C   0  0  0  0  0  0  0  0  0  0  0  0
    9.2142   -1.3669    0.0000 C   0  0  0  0  0  0  0  0  0  0  0  0
    8.1607   -2.4347    0.0000 N   0  0  0  0  0  0  0  0  0  0  0  0
    6.8197   -1.7628    0.0000 N   0  0  0  0  0  0  0  0  0  0  0  0
  1  2  1  0
  2  3  1  0
  3  4  2  0
  4  5  1  0
  5  6  2  0
  6  7  1  0
  7  8  1  0
  8  9  1  0
  9 10  2  0
 10 11  1  0
 11 12  1  0
 11 13  2  0
 13 14  1  0
 14 15  1  0
  6 16  1  0
 16 17  2  0
 17 18  1  0
 18 19  2  0
 19 20  1  0
 20 21  2  0
 21 22  1  0
 22 23  1  0
 23 24  1  0
 24 25  1  0
 25 26  1  0
 26 27  2  0
 27 28  1  0
 28 29  2  0
 21  3  1  0
 19  5  1  0
 14  8  2  0
 29 25  1  0
M  END
>  <ChEMBL_ID>  (123) 
CHEMBL281872

>  <SMILES>  (123) 
COc1cc2c(Nc3ccc(Br)cc3F)ncnc2cc1OCCn1ccnn1

>  <MPO_Hit_Score>  (123) 
0.45639999999999997

>  <Tanimoto_to_Gefitinib>  (123) 
0.44440000000000002

>  <MolecularWeight>  (123) 
459.27999999999997

>  <LogP>  (123) 
3.9500000000000002

>  <TPSA>  (123) 
86.980000000000004

$$$$
CHEMBL204268
     RDKit          2D

 27 30  0  0  0  0  0  0  0  0999 V2000
   -6.0479    2.9512    0.0000 C   0  0  0  0  0  0  0  0  0  0  0  0
   -5.4233    1.5874    0.0000 O   0  0  0  0  0  0  0  0  0  0  0  0
   -3.9300    1.4464    0.0000 C   0  0  0  0  0  0  0  0  0  0  0  0
   -3.3054    0.0827    0.0000 C   0  0  0  0  0  0  0  0  0  0  0  0
   -1.8120   -0.0583    0.0000 C   0  0  0  0  0  0  0  0  0  0  0  0
   -1.1874   -1.4221    0.0000 O   0  0  0  0  0  0  0  0  0  0  0  0
   -2.0562   -2.6449    0.0000 C   0  0  0  0  0  0  0  0  0  0  0  0
   -1.5776   -4.0665    0.0000 C   0  0  0  0  0  0  0  0  0  0  0  0
   -2.7817   -4.9610    0.0000 C   0  0  0  0  0  0  0  0  0  0  0  0
   -4.0045   -4.0922    0.0000 O   0  0  0  0  0  0  0  0  0  0  0  0
   -3.5561   -2.6608    0.0000 C   0  0  0  0  0  0  0  0  0  0  0  0
   -0.9432    1.1645    0.0000 C   0  0  0  0  0  0  0  0  0  0  0  0
    0.5501    1.0235    0.0000 C   0  0  0  0  0  0  0  0  0  0  0  0
    1.1747   -0.3403    0.0000 N   0  0  0  0  0  0  0  0  0  0  0  0
    2.6681   -0.4813    0.0000 C   0  0  0  0  0  0  0  0  0  0  0  0
    3.2926   -1.8451    0.0000 C   0  0  0  0  0  0  0  0  0  0  0  0
    4.7860   -1.9860    0.0000 C   0  0  0  0  0  0  0  0  0  0  0  0
    5.6548   -0.7632    0.0000 C   0  0  0  0  0  0  0  0  0  0  0  0
    7.1481   -0.9042    0.0000 F   0  0  0  0  0  0  0  0  0  0  0  0
    5.0302    0.6005    0.0000 C   0  0  0  0  0  0  0  0  0  0  0  0
    5.8990    1.8233    0.0000 Cl  0  0  0  0  0  0  0  0  0  0  0  0
    3.5368    0.7415    0.0000 C   0  0  0  0  0  0  0  0  0  0  0  0
    1.4189    2.2463    0.0000 N   0  0  0  0  0  0  0  0  0  0  0  0
    0.7943    3.6101    0.0000 C   0  0  0  0  0  0  0  0  0  0  0  0
   -0.6991    3.7510    0.0000 N   0  0  0  0  0  0  0  0  0  0  0  0
   -1.5678    2.5283    0.0000 C   0  0  0  0  0  0  0  0  0  0  0  0
   -3.0612    2.6692    0.0000 C   0  0  0  0  0  0  0  0  0  0  0  0
  1  2  1  0
  2  3  1  0
  3  4  1  0
  4  5  2  0
  5  6  1  0
  6  7  1  0
  7  8  1  0
  8  9  1  0
  9 10  1  0
 10 11  1  0
  5 12  1  0
 12 13  2  0
 13 14  1  0
 14 15  1  0
 15 16  1  0
 16 17  2  0
 17 18  1  0
 18 19  1  0
 18 20  2  0
 20 21  1  0
 20 22  1  0
 13 23  1  0
 23 24  2  0
 24 25  1  0
 25 26  2  0
 26 27  1  0
 27  3  2  0
 11  7  1  0
 26 12  1  0
 22 15  2  0
M  END
>  <ChEMBL_ID>  (124) 
CHEMBL204268

>  <SMILES>  (124) 
COc1cc(OC2CCOC2)c2c(Nc3ccc(F)c(Cl)c3)ncnc2c1

>  <MPO_Hit_Score>  (124) 
0.45529999999999998

>  <Tanimoto_to_Gefitinib>  (124) 
0.45679999999999998

>  <MolecularWeight>  (124) 
389.81

>  <LogP>  (124) 
4.3399999999999999

>  <TPSA>  (124) 
65.5

$$$$
CHEMBL2064390
     RDKit          2D

 34 38  0  0  0  0  0  0  0  0999 V2000
   10.1514   -0.7445    0.0000 C   0  0  0  0  0  0  0  0  0  0  0  0
    8.8348   -1.4631    0.0000 C   0  0  0  0  0  0  0  0  0  0  0  0
    8.7987   -2.9626    0.0000 C   0  0  0  0  0  0  0  0  0  0  0  0
    7.5541   -0.6821    0.0000 O   0  0  0  0  0  0  0  0  0  0  0  0
    6.2374   -1.4007    0.0000 C   0  0  0  0  0  0  0  0  0  0  0  0
    6.2014   -2.9002    0.0000 C   0  0  0  0  0  0  0  0  0  0  0  0
    4.8847   -3.6188    0.0000 C   0  0  0  0  0  0  0  0  0  0  0  0
    3.6041   -2.8378    0.0000 C   0  0  0  0  0  0  0  0  0  0  0  0
    3.6401   -1.3383    0.0000 C   0  0  0  0  0  0  0  0  0  0  0  0
    2.3595   -0.5573    0.0000 N   0  0  0  0  0  0  0  0  0  0  0  0
    2.3955    0.9423    0.0000 C   0  0  0  0  0  0  0  0  0  0  0  0
    3.7122    1.6609    0.0000 N   0  0  0  0  0  0  0  0  0  0  0  0
    3.7482    3.1604    0.0000 C   0  0  0  0  0  0  0  0  0  0  0  0
    2.4675    3.9414    0.0000 N   0  0  0  0  0  0  0  0  0  0  0  0
    1.1509    3.2228    0.0000 C   0  0  0  0  0  0  0  0  0  0  0  0
   -0.1298    4.0038    0.0000 C   0  0  0  0  0  0  0  0  0  0  0  0
   -1.4465    3.2852    0.0000 C   0  0  0  0  0  0  0  0  0  0  0  0
   -2.8615    3.7829    0.0000 O   0  0  0  0  0  0  0  0  0  0  0  0
   -3.7721    2.5909    0.0000 C   0  0  0  0  0  0  0  0  0  0  0  0
   -5.2716    2.6269    0.0000 O   0  0  0  0  0  0  0  0  0  0  0  0
   -2.9198    1.3565    0.0000 N   0  0  0  0  0  0  0  0  0  0  0  0
   -3.4175   -0.0585    0.0000 C   0  0  0  0  0  0  0  0  0  0  0  0
   -4.8917   -0.3350    0.0000 C   0  0  0  0  0  0  0  0  0  0  0  0
   -5.3894   -1.7501    0.0000 C   0  0  0  0  0  0  0  0  0  0  0  0
   -6.8637   -2.0266    0.0000 N   0  0  0  0  0  0  0  0  0  0  0  0
   -7.8403   -0.8881    0.0000 C   0  0  0  0  0  0  0  0  0  0  0  0
   -9.3146   -1.1647    0.0000 C   0  0  0  0  0  0  0  0  0  0  0  0
   -9.8123   -2.5797    0.0000 O   0  0  0  0  0  0  0  0  0  0  0  0
   -8.8356   -3.7182    0.0000 C   0  0  0  0  0  0  0  0  0  0  0  0
   -7.3613   -3.4417    0.0000 C   0  0  0  0  0  0  0  0  0  0  0  0
   -1.4825    1.7857    0.0000 C   0  0  0  0  0  0  0  0  0  0  0  0
   -0.2018    1.0047    0.0000 C   0  0  0  0  0  0  0  0  0  0  0  0
    1.1148    1.7233    0.0000 C   0  0  0  0  0  0  0  0  0  0  0  0
    4.9568   -0.6197    0.0000 C   0  0  0  0  0  0  0  0  0  0  0  0
  1  2  1  0
  2  3  1  0
  2  4  1  0
  4  5  1  0
  5  6  2  0
  6  7  1  0
  7  8  2  0
  8  9  1  0
  9 10  1  0
 10 11  1  0
 11 12  1  0
 12 13  2  0
 13 14  1  0
 14 15  2  0
 15 16  1  0
 16 17  2  0
 17 18  1  0
 18 19  1  0
 19 20  2  0
 19 21  1  0
 21 22  1  0
 22 23  1  0
 23 24  1  0
 24 25  1  0
 25 26  1  0
 26 27  1  0
 27 28  1  0
 28 29  1  0
 29 30  1  0
 21 31  1  0
 31 32  2  0
 32 33  1  0
  9 34  2  0
 34  5  1  0
 33 11  2  0
 33 15  1  0
 31 17  1  0
 30 25  1  0
M  END
>  <ChEMBL_ID>  (125) 
CHEMBL2064390

>  <SMILES>  (125) 
CC(C)Oc1cccc(Nc2ncnc3cc4oc(=O)n(CCCN5CCOCC5)c4cc23)c1

>  <MPO_Hit_Score>  (125) 
0.44650000000000001

>  <Tanimoto_to_Gefitinib>  (125) 
0.42699999999999999

>  <MolecularWeight>  (125) 
463.54000000000002

>  <LogP>  (125) 
3.79

>  <TPSA>  (125) 
94.650000000000006

$$$$
CHEMBL207815
     RDKit          2D

 35 38  0  0  0  0  0  0  0  0999 V2000
   -8.7076   -5.2396    0.0000 C   0  0  0  0  0  0  0  0  0  0  0  0
   -7.2536   -4.8709    0.0000 O   0  0  0  0  0  0  0  0  0  0  0  0
   -6.8459   -3.4274    0.0000 C   0  0  0  0  0  0  0  0  0  0  0  0
   -5.3919   -3.0587    0.0000 C   0  0  0  0  0  0  0  0  0  0  0  0
   -4.9842   -1.6151    0.0000 N   0  0  0  0  0  0  0  0  0  0  0  0
   -3.6752   -0.8827    0.0000 C   0  0  0  0  0  0  0  0  0  0  0  0
   -4.4077    0.4263    0.0000 C   0  0  0  0  0  0  0  0  0  0  0  0
   -5.7167   -0.3061    0.0000 C   0  0  0  0  0  0  0  0  0  0  0  0
   -3.0987    1.1588    0.0000 N   0  0  0  0  0  0  0  0  0  0  0  0
   -3.0785    2.6587    0.0000 C   0  0  0  0  0  0  0  0  0  0  0  0
   -1.8098    0.3914    0.0000 C   0  0  0  0  0  0  0  0  0  0  0  0
   -0.5008    1.1238    0.0000 C   0  0  0  0  0  0  0  0  0  0  0  0
    0.7880    0.3564    0.0000 C   0  0  0  0  0  0  0  0  0  0  0  0
    2.0970    1.0889    0.0000 C   0  0  0  0  0  0  0  0  0  0  0  0
    3.3858    0.3214    0.0000 C   0  0  0  0  0  0  0  0  0  0  0  0
    3.3657   -1.1784    0.0000 N   0  0  0  0  0  0  0  0  0  0  0  0
    4.6545   -1.9458    0.0000 C   0  0  0  0  0  0  0  0  0  0  0  0
    4.6343   -3.4457    0.0000 C   0  0  0  0  0  0  0  0  0  0  0  0
    5.9231   -4.2131    0.0000 C   0  0  0  0  0  0  0  0  0  0  0  0
    7.2321   -3.4807    0.0000 C   0  0  0  0  0  0  0  0  0  0  0  0
    7.2523   -1.9808    0.0000 C   0  0  0  0  0  0  0  0  0  0  0  0
    8.5613   -1.2483    0.0000 Cl  0  0  0  0  0  0  0  0  0  0  0  0
    5.9635   -1.2134    0.0000 C   0  0  0  0  0  0  0  0  0  0  0  0
    5.9837    0.2865    0.0000 F   0  0  0  0  0  0  0  0  0  0  0  0
    4.6949    1.0539    0.0000 N   0  0  0  0  0  0  0  0  0  0  0  0
    4.7150    2.5538    0.0000 C   0  0  0  0  0  0  0  0  0  0  0  0
    3.4262    3.3212    0.0000 N   0  0  0  0  0  0  0  0  0  0  0  0
    2.1172    2.5887    0.0000 C   0  0  0  0  0  0  0  0  0  0  0  0
    0.8284    3.3561    0.0000 C   0  0  0  0  0  0  0  0  0  0  0  0
   -0.4806    2.6237    0.0000 C   0  0  0  0  0  0  0  0  0  0  0  0
   -1.7695    3.3911    0.0000 O   0  0  0  0  0  0  0  0  0  0  0  0
   -1.7493    4.8910    0.0000 C   0  0  0  0  0  0  0  0  0  0  0  0
   -5.1401    1.7354    0.0000 C   0  0  0  0  0  0  0  0  0  0  0  0
   -4.3727    3.0242    0.0000 O   0  0  0  0  0  0  0  0  0  0  0  0
   -6.6400    1.7555    0.0000 N   0  0  0  0  0  0  0  0  0  0  0  0
  1  2  1  0
  2  3  1  0
  3  4  1  0
  4  5  1  0
  5  6  1  0
  6  7  1  0
  7  8  1  0
  7  9  1  0
  9 10  1  0
  9 11  1  0
 11 12  1  0
 12 13  2  0
 13 14  1  0
 14 15  2  0
 15 16  1  0
 16 17  1  0
 17 18  2  0
 18 19  1  0
 19 20  2  0
 20 21  1  0
 21 22  1  0
 21 23  2  0
 23 24  1  0
 15 25  1  0
 25 26  2  0
 26 27  1  0
 27 28  2  0
 28 29  1  0
 29 30  2  0
 30 31  1  0
 31 32  1  0
  7 33  1  0
 33 34  2  0
 33 35  1  0
  8  5  1  0
 30 12  1  0
 28 14  1  0
 23 17  1  0
M  END
>  <ChEMBL_ID>  (126) 
CHEMBL207815

>  <SMILES>  (126) 
COCCN1CC(C(N)=O)(N(C)Cc2cc3c(Nc4cccc(Cl)c4F)ncnc3cc2OC)C1

>  <MPO_Hit_Score>  (126) 
0.44450000000000001

>  <Tanimoto_to_Gefitinib>  (126) 
0.40000000000000002

>  <MolecularWeight>  (126) 
502.98000000000002

>  <LogP>  (126) 
2.79

>  <TPSA>  (126) 
105.84

$$$$
CHEMBL3819120
     RDKit          2D

 37 41  0  0  0  0  0  0  0  0999 V2000
  -10.2251    0.1644    0.0000 F   0  0  0  0  0  0  0  0  0  0  0  0
   -8.7291    0.2744    0.0000 C   0  0  0  0  0  0  0  0  0  0  0  0
   -8.0764    1.6249    0.0000 C   0  0  0  0  0  0  0  0  0  0  0  0
   -6.5805    1.7349    0.0000 C   0  0  0  0  0  0  0  0  0  0  0  0
   -5.7372    0.4944    0.0000 C   0  0  0  0  0  0  0  0  0  0  0  0
   -4.2413    0.6044    0.0000 N   0  0  0  0  0  0  0  0  0  0  0  0
   -3.3980   -0.6362    0.0000 C   0  0  0  0  0  0  0  0  0  0  0  0
   -4.0507   -1.9867    0.0000 N   0  0  0  0  0  0  0  0  0  0  0  0
   -3.2075   -3.2272    0.0000 C   0  0  0  0  0  0  0  0  0  0  0  0
   -1.7115   -3.1172    0.0000 N   0  0  0  0  0  0  0  0  0  0  0  0
   -1.0588   -1.7667    0.0000 C   0  0  0  0  0  0  0  0  0  0  0  0
    0.4372   -1.6567    0.0000 C   0  0  0  0  0  0  0  0  0  0  0  0
    1.0899   -0.3062    0.0000 C   0  0  0  0  0  0  0  0  0  0  0  0
    2.5858   -0.1962    0.0000 O   0  0  0  0  0  0  0  0  0  0  0  0
    3.4291   -1.4367    0.0000 C   0  0  0  0  0  0  0  0  0  0  0  0
    4.9250   -1.3267    0.0000 C   0  0  0  0  0  0  0  0  0  0  0  0
    5.7683   -2.5672    0.0000 N   0  0  0  0  0  0  0  0  0  0  0  0
    5.1156   -3.9178    0.0000 C   0  0  0  0  0  0  0  0  0  0  0  0
    5.9588   -5.1583    0.0000 C   0  0  0  0  0  0  0  0  0  0  0  0
    7.4548   -5.0483    0.0000 C   0  0  0  0  0  0  0  0  0  0  0  0
    8.1075   -3.6978    0.0000 C   0  0  0  0  0  0  0  0  0  0  0  0
    7.2642   -2.4572    0.0000 C   0  0  0  0  0  0  0  0  0  0  0  0
    0.2466    0.9344    0.0000 C   0  0  0  0  0  0  0  0  0  0  0  0
    0.8993    2.2849    0.0000 N   0  0  0  0  0  0  0  0  0  0  0  0
    2.3953    2.3949    0.0000 C   0  0  0  0  0  0  0  0  0  0  0  0
    3.2386    1.1544    0.0000 O   0  0  0  0  0  0  0  0  0  0  0  0
    3.0480    3.7455    0.0000 C   0  0  0  0  0  0  0  0  0  0  0  0
    2.3391    5.0674    0.0000 C   0  0  0  0  0  0  0  0  0  0  0  0
    3.3772    6.1501    0.0000 O   0  0  0  0  0  0  0  0  0  0  0  0
    4.7277    5.4974    0.0000 C   0  0  0  0  0  0  0  0  0  0  0  0
    6.0496    6.2063    0.0000 O   0  0  0  0  0  0  0  0  0  0  0  0
    4.5243    4.0112    0.0000 N   0  0  0  0  0  0  0  0  0  0  0  0
   -1.2493    0.8244    0.0000 C   0  0  0  0  0  0  0  0  0  0  0  0
   -1.9020   -0.5262    0.0000 C   0  0  0  0  0  0  0  0  0  0  0  0
   -6.3899   -0.8562    0.0000 C   0  0  0  0  0  0  0  0  0  0  0  0
   -7.8859   -0.9662    0.0000 C   0  0  0  0  0  0  0  0  0  0  0  0
   -8.5386   -2.3167    0.0000 Cl  0  0  0  0  0  0  0  0  0  0  0  0
  1  2  1  0
  2  3  1  0
  3  4  2  0
  4  5  1  0
  5  6  1  0
  6  7  1  0
  7  8  1  0
  8  9  2  0
  9 10  1  0
 10 11  2  0
 11 12  1  0
 12 13  2  0
 13 14  1  0
 14 15  1  0
 15 16  1  0
 16 17  1  0
 17 18  1  0
 18 19  1  0
 19 20  1  0
 20 21  1  0
 21 22  1  0
 13 23  1  0
 23 24  1  0
 24 25  1  0
 25 26  2  0
 27 25  1  6
 27 28  1  0
 28 29  1  0
 29 30  1  0
 30 31  2  0
 30 32  1  0
 23 33  2  0
 33 34  1  0
  5 35  2  0
 35 36  1  0
 36 37  1  0
 36  2  2  0
 34  7  2  0
 34 11  1  0
 22 17  1  0
 32 27  1  0
M  END
>  <ChEMBL_ID>  (127) 
CHEMBL3819120

>  <SMILES>  (127) 
O=C1N[C@H](C(=O)Nc2cc3c(Nc4ccc(F)c(Cl)c4)ncnc3cc2OCCN2CCCCC2)CO1

>  <MPO_Hit_Score>  (127) 
0.4395

>  <Tanimoto_to_Gefitinib>  (127) 
0.5

>  <MolecularWeight>  (127) 
528.97000000000003

>  <LogP>  (127) 
4.0800000000000001

>  <TPSA>  (127) 
117.70999999999999

$$$$
CHEMBL203936
     RDKit          2D

 29 32  0  0  0  0  0  0  0  0999 V2000
   -5.3014   -1.1602    0.0000 C   0  0  0  0  0  0  0  0  0  0  0  0
   -3.8912   -0.6488    0.0000 O   0  0  0  0  0  0  0  0  0  0  0  0
   -2.7433   -1.6143    0.0000 C   0  0  0  0  0  0  0  0  0  0  0  0
   -3.0055   -3.0912    0.0000 C   0  0  0  0  0  0  0  0  0  0  0  0
   -1.8576   -4.0567    0.0000 C   0  0  0  0  0  0  0  0  0  0  0  0
   -0.4474   -3.5453    0.0000 C   0  0  0  0  0  0  0  0  0  0  0  0
    0.7005   -4.5109    0.0000 N   0  0  0  0  0  0  0  0  0  0  0  0
    2.1106   -3.9995    0.0000 C   0  0  0  0  0  0  0  0  0  0  0  0
    2.3728   -2.5226    0.0000 N   0  0  0  0  0  0  0  0  0  0  0  0
    1.2249   -1.5570    0.0000 C   0  0  0  0  0  0  0  0  0  0  0  0
    1.4871   -0.0801    0.0000 N   0  0  0  0  0  0  0  0  0  0  0  0
    2.8972    0.4312    0.0000 C   0  0  0  0  0  0  0  0  0  0  0  0
    4.0452   -0.5343    0.0000 C   0  0  0  0  0  0  0  0  0  0  0  0
    5.4553   -0.0229    0.0000 C   0  0  0  0  0  0  0  0  0  0  0  0
    5.7175    1.4540    0.0000 C   0  0  0  0  0  0  0  0  0  0  0  0
    7.1277    1.9654    0.0000 F   0  0  0  0  0  0  0  0  0  0  0  0
    4.5696    2.4195    0.0000 C   0  0  0  0  0  0  0  0  0  0  0  0
    4.8318    3.8964    0.0000 Cl  0  0  0  0  0  0  0  0  0  0  0  0
    3.1594    1.9081    0.0000 C   0  0  0  0  0  0  0  0  0  0  0  0
   -0.1852   -2.0684    0.0000 C   0  0  0  0  0  0  0  0  0  0  0  0
   -1.3332   -1.1029    0.0000 C   0  0  0  0  0  0  0  0  0  0  0  0
   -1.0710    0.3740    0.0000 O   0  0  0  0  0  0  0  0  0  0  0  0
   -2.2189    1.3395    0.0000 C   0  0  0  0  0  0  0  0  0  0  0  0
   -3.6291    0.8281    0.0000 C   0  0  0  0  0  0  0  0  0  0  0  0
   -4.7770    1.7937    0.0000 C   0  0  0  0  0  0  0  0  0  0  0  0
   -4.5148    3.2706    0.0000 N   0  0  0  0  0  0  0  0  0  0  0  0
   -5.6627    4.2361    0.0000 C   0  0  0  0  0  0  0  0  0  0  0  0
   -3.1047    3.7819    0.0000 C   0  0  0  0  0  0  0  0  0  0  0  0
   -1.9567    2.8164    0.0000 C   0  0  0  0  0  0  0  0  0  0  0  0
  1  2  1  0
  2  3  1  0
  3  4  1  0
  4  5  2  0
  5  6  1  0
  6  7  2  0
  7  8  1  0
  8  9  2  0
  9 10  1  0
 10 11  1  0
 11 12  1  0
 12 13  1  0
 13 14  2  0
 14 15  1  0
 15 16  1  0
 15 17  2  0
 17 18  1  0
 17 19  1  0
 10 20  2  0
 20 21  1  0
 21 22  1  0
 22 23  1  0
 23 24  1  0
 24 25  1  0
 25 26  1  0
 26 27  1  0
 26 28  1  0
 28 29  1  0
 21  3  2  0
 20  6  1  0
 19 12  2  0
 29 23  1  0
M  END
>  <ChEMBL_ID>  (128) 
CHEMBL203936

>  <SMILES>  (128) 
COc1ccc2ncnc(Nc3ccc(F)c(Cl)c3)c2c1OC1CCN(C)CC1

>  <MPO_Hit_Score>  (128) 
0.43909999999999999

>  <Tanimoto_to_Gefitinib>  (128) 
0.5

>  <MolecularWeight>  (128) 
416.88

>  <LogP>  (128) 
4.6500000000000004

>  <TPSA>  (128) 
59.509999999999998

$$$$
CHEMBL205149
     RDKit          2D

 28 31  0  0  0  0  0  0  0  0999 V2000
   -5.6532    3.5829    0.0000 C   0  0  0  0  0  0  0  0  0  0  0  0
   -5.1391    2.1738    0.0000 O   0  0  0  0  0  0  0  0  0  0  0  0
   -3.6617    1.9145    0.0000 C   0  0  0  0  0  0  0  0  0  0  0  0
   -3.1475    0.5053    0.0000 C   0  0  0  0  0  0  0  0  0  0  0  0
   -1.6701    0.2460    0.0000 C   0  0  0  0  0  0  0  0  0  0  0  0
   -1.1560   -1.1631    0.0000 O   0  0  0  0  0  0  0  0  0  0  0  0
   -2.1193   -2.3129    0.0000 C   0  0  0  0  0  0  0  0  0  0  0  0
   -3.5967   -2.0536    0.0000 C   0  0  0  0  0  0  0  0  0  0  0  0
   -4.5600   -3.2034    0.0000 C   0  0  0  0  0  0  0  0  0  0  0  0
   -4.0458   -4.6126    0.0000 N   0  0  0  0  0  0  0  0  0  0  0  0
   -2.5684   -4.8719    0.0000 C   0  0  0  0  0  0  0  0  0  0  0  0
   -1.6051   -3.7221    0.0000 C   0  0  0  0  0  0  0  0  0  0  0  0
   -0.7068    1.3959    0.0000 C   0  0  0  0  0  0  0  0  0  0  0  0
    0.7706    1.1365    0.0000 C   0  0  0  0  0  0  0  0  0  0  0  0
    1.2847   -0.2726    0.0000 N   0  0  0  0  0  0  0  0  0  0  0  0
    2.7621   -0.5319    0.0000 C   0  0  0  0  0  0  0  0  0  0  0  0
    3.2763   -1.9410    0.0000 C   0  0  0  0  0  0  0  0  0  0  0  0
    4.7537   -2.2004    0.0000 C   0  0  0  0  0  0  0  0  0  0  0  0
    5.7170   -1.0505    0.0000 C   0  0  0  0  0  0  0  0  0  0  0  0
    7.1944   -1.3098    0.0000 F   0  0  0  0  0  0  0  0  0  0  0  0
    5.2028    0.3586    0.0000 C   0  0  0  0  0  0  0  0  0  0  0  0
    6.1661    1.5084    0.0000 Cl  0  0  0  0  0  0  0  0  0  0  0  0
    3.7254    0.6179    0.0000 C   0  0  0  0  0  0  0  0  0  0  0  0
    1.7339    2.2864    0.0000 N   0  0  0  0  0  0  0  0  0  0  0  0
    1.2197    3.6955    0.0000 C   0  0  0  0  0  0  0  0  0  0  0  0
   -0.2577    3.9548    0.0000 N   0  0  0  0  0  0  0  0  0  0  0  0
   -1.2210    2.8050    0.0000 C   0  0  0  0  0  0  0  0  0  0  0  0
   -2.6984    3.0643    0.0000 C   0  0  0  0  0  0  0  0  0  0  0  0
  1  2  1  0
  2  3  1  0
  3  4  1  0
  4  5  2  0
  5  6  1  0
  6  7  1  0
  7  8  1  0
  8  9  1  0
  9 10  1  0
 10 11  1  0
 11 12  1  0
  5 13  1  0
 13 14  2  0
 14 15  1  0
 15 16  1  0
 16 17  1  0
 17 18  2  0
 18 19  1  0
 19 20  1  0
 19 21  2  0
 21 22  1  0
 21 23  1  0
 14 24  1  0
 24 25  2  0
 25 26  1  0
 26 27  2  0
 27 28  1  0
 28  3  2  0
 12  7  1  0
 27 13  1  0
 23 16  2  0
M  END
>  <ChEMBL_ID>  (129) 
CHEMBL205149

>  <SMILES>  (129) 
COc1cc(OC2CCNCC2)c2c(Nc3ccc(F)c(Cl)c3)ncnc2c1

>  <MPO_Hit_Score>  (129) 
0.43830000000000002

>  <Tanimoto_to_Gefitinib>  (129) 
0.41460000000000002

>  <MolecularWeight>  (129) 
402.86000000000001

>  <LogP>  (129) 
4.3099999999999996

>  <TPSA>  (129) 
68.299999999999997

$$$$
CHEMBL3805775
     RDKit          2D

 29 32  0  0  0  0  0  0  0  0999 V2000
   -6.2218   -3.6822    0.0000 C   0  0  0  0  0  0  0  0  0  0  0  0
   -6.5350   -2.2153    0.0000 O   0  0  0  0  0  0  0  0  0  0  0  0
   -5.4212   -1.2105    0.0000 C   0  0  0  0  0  0  0  0  0  0  0  0
   -5.7345    0.2564    0.0000 C   0  0  0  0  0  0  0  0  0  0  0  0
   -7.1615    0.7186    0.0000 C   0  0  0  0  0  0  0  0  0  0  0  0
   -4.6207    1.2611    0.0000 O   0  0  0  0  0  0  0  0  0  0  0  0
   -3.1937    0.7990    0.0000 C   0  0  0  0  0  0  0  0  0  0  0  0
   -2.8804   -0.6680    0.0000 C   0  0  0  0  0  0  0  0  0  0  0  0
   -1.4534   -1.1302    0.0000 C   0  0  0  0  0  0  0  0  0  0  0  0
   -1.1402   -2.5971    0.0000 N   0  0  0  0  0  0  0  0  0  0  0  0
    0.2868   -3.0593    0.0000 C   0  0  0  0  0  0  0  0  0  0  0  0
    1.4006   -2.0545    0.0000 N   0  0  0  0  0  0  0  0  0  0  0  0
    1.0874   -0.5876    0.0000 C   0  0  0  0  0  0  0  0  0  0  0  0
    2.2011    0.4171    0.0000 N   0  0  0  0  0  0  0  0  0  0  0  0
    3.6282   -0.0451    0.0000 C   0  0  0  0  0  0  0  0  0  0  0  0
    3.9414   -1.5120    0.0000 C   0  0  0  0  0  0  0  0  0  0  0  0
    5.3684   -1.9742    0.0000 C   0  0  0  0  0  0  0  0  0  0  0  0
    6.4822   -0.9694    0.0000 C   0  0  0  0  0  0  0  0  0  0  0  0
    7.9092   -1.4316    0.0000 F   0  0  0  0  0  0  0  0  0  0  0  0
    6.1690    0.4975    0.0000 C   0  0  0  0  0  0  0  0  0  0  0  0
    7.2827    1.5022    0.0000 Cl  0  0  0  0  0  0  0  0  0  0  0  0
    4.7419    0.9597    0.0000 C   0  0  0  0  0  0  0  0  0  0  0  0
   -0.3397   -0.1254    0.0000 C   0  0  0  0  0  0  0  0  0  0  0  0
   -0.6529    1.3415    0.0000 C   0  0  0  0  0  0  0  0  0  0  0  0
    0.4609    2.3462    0.0000 O   0  0  0  0  0  0  0  0  0  0  0  0
    0.1476    3.8132    0.0000 C   0  0  0  0  0  0  0  0  0  0  0  0
   -1.2794    4.2754    0.0000 C   0  0  0  0  0  0  0  0  0  0  0  0
   -2.3932    3.2706    0.0000 O   0  0  0  0  0  0  0  0  0  0  0  0
   -2.0799    1.8037    0.0000 C   0  0  0  0  0  0  0  0  0  0  0  0
  1  2  1  0
  2  3  1  0
  3  4  1  0
  4  5  1  0
  4  6  1  0
  6  7  1  0
  7  8  2  0
  8  9  1  0
  9 10  2  0
 10 11  1  0
 11 12  2  0
 12 13  1  0
 13 14  1  0
 14 15  1  0
 15 16  1  0
 16 17  2  0
 17 18  1  0
 18 19  1  0
 18 20  2  0
 20 21  1  0
 20 22  1  0
 13 23  2  0
 23 24  1  0
 24 25  1  0
 25 26  1  0
 26 27  1  0
 27 28  1  0
 28 29  1  0
 29  7  1  0
 23  9  1  0
 22 15  2  0
 29 24  2  0
M  END
>  <ChEMBL_ID>  (130) 
CHEMBL3805775

>  <SMILES>  (130) 
COCC(C)Oc1cc2ncnc(Nc3ccc(F)c(Cl)c3)c2c2c1OCCO2

>  <MPO_Hit_Score>  (130) 
0.438

>  <Tanimoto_to_Gefitinib>  (130) 
0.47499999999999998

>  <MolecularWeight>  (130) 
419.83999999999997

>  <LogP>  (130) 
4.3499999999999996

>  <TPSA>  (130) 
74.730000000000004

$$$$
CHEMBL39355
     RDKit          2D

 30 34  0  0  0  0  0  0  0  0999 V2000
   -8.7426   -1.8027    0.0000 Br  0  0  0  0  0  0  0  0  0  0  0  0
   -8.0589   -0.4676    0.0000 C   0  0  0  0  0  0  0  0  0  0  0  0
   -8.8733    0.7921    0.0000 C   0  0  0  0  0  0  0  0  0  0  0  0
   -8.1896    2.1272    0.0000 C   0  0  0  0  0  0  0  0  0  0  0  0
   -6.6915    2.2027    0.0000 C   0  0  0  0  0  0  0  0  0  0  0  0
   -5.8771    0.9430    0.0000 C   0  0  0  0  0  0  0  0  0  0  0  0
   -4.3790    1.0185    0.0000 N   0  0  0  0  0  0  0  0  0  0  0  0
   -3.5646   -0.2412    0.0000 C   0  0  0  0  0  0  0  0  0  0  0  0
   -4.2483   -1.5763    0.0000 N   0  0  0  0  0  0  0  0  0  0  0  0
   -3.4339   -2.8360    0.0000 C   0  0  0  0  0  0  0  0  0  0  0  0
   -1.9358   -2.7605    0.0000 N   0  0  0  0  0  0  0  0  0  0  0  0
   -1.2521   -1.4254    0.0000 C   0  0  0  0  0  0  0  0  0  0  0  0
    0.2460   -1.3499    0.0000 C   0  0  0  0  0  0  0  0  0  0  0  0
    0.9297   -0.0148    0.0000 C   0  0  0  0  0  0  0  0  0  0  0  0
    0.1153    1.2449    0.0000 C   0  0  0  0  0  0  0  0  0  0  0  0
    1.0616    2.4087    0.0000 C   0  0  0  0  0  0  0  0  0  0  0  0
    2.4609    1.8683    0.0000 N   0  0  0  0  0  0  0  0  0  0  0  0
    2.3794    0.3705    0.0000 N   0  0  0  0  0  0  0  0  0  0  0  0
    3.5432   -0.5758    0.0000 C   0  0  0  0  0  0  0  0  0  0  0  0
    4.9446   -0.0411    0.0000 C   0  0  0  0  0  0  0  0  0  0  0  0
    6.1084   -0.9875    0.0000 C   0  0  0  0  0  0  0  0  0  0  0  0
    7.5099   -0.4528    0.0000 N   0  0  0  0  0  0  0  0  0  0  0  0
    8.6737   -1.3991    0.0000 C   0  0  0  0  0  0  0  0  0  0  0  0
   10.0751   -0.8644    0.0000 C   0  0  0  0  0  0  0  0  0  0  0  0
   10.3128    0.6167    0.0000 O   0  0  0  0  0  0  0  0  0  0  0  0
    9.1490    1.5630    0.0000 C   0  0  0  0  0  0  0  0  0  0  0  0
    7.7475    1.0283    0.0000 C   0  0  0  0  0  0  0  0  0  0  0  0
   -1.3828    1.1694    0.0000 C   0  0  0  0  0  0  0  0  0  0  0  0
   -2.0665   -0.1657    0.0000 C   0  0  0  0  0  0  0  0  0  0  0  0
   -6.5608   -0.3921    0.0000 C   0  0  0  0  0  0  0  0  0  0  0  0
  1  2  1  0
  2  3  1  0
  3  4  2  0
  4  5  1  0
  5  6  2  0
  6  7  1  0
  7  8  1  0
  8  9  1  0
  9 10  2  0
 10 11  1  0
 11 12  2  0
 12 13  1  0
 13 14  2  0
 14 15  1  0
 15 16  1  0
 16 17  2  0
 17 18  1  0
 18 19  1  0
 19 20  1  0
 20 21  1  0
 21 22  1  0
 22 23  1  0
 23 24  1  0
 24 25  1  0
 25 26  1  0
 26 27  1  0
 15 28  2  0
 28 29  1  0
  6 30  1  0
 30  2  2  0
 29  8  2  0
 29 12  1  0
 18 14  1  0
 27 22  1  0
M  END
>  <ChEMBL_ID>  (131) 
CHEMBL39355

>  <SMILES>  (131) 
Brc1cccc(Nc2ncnc3cc4c(cnn4CCCN4CCOCC4)cc23)c1

>  <MPO_Hit_Score>  (131) 
0.43709999999999999

>  <Tanimoto_to_Gefitinib>  (131) 
0.43369999999999997

>  <MolecularWeight>  (131) 
467.37

>  <LogP>  (131) 
4.21

>  <TPSA>  (131) 
68.099999999999994

$$$$
CHEMBL203725
     RDKit          2D

 27 30  0  0  0  0  0  0  0  0999 V2000
    6.2428   -3.8010    0.0000 C   0  0  0  0  0  0  0  0  0  0  0  0
    5.0389   -2.9061    0.0000 N   0  0  0  0  0  0  0  0  0  0  0  0
    3.6620   -3.5013    0.0000 C   0  0  0  0  0  0  0  0  0  0  0  0
    2.4582   -2.6065    0.0000 C   0  0  0  0  0  0  0  0  0  0  0  0
    2.6312   -1.1165    0.0000 C   0  0  0  0  0  0  0  0  0  0  0  0
    4.0081   -0.5213    0.0000 C   0  0  0  0  0  0  0  0  0  0  0  0
    5.2119   -1.4162    0.0000 C   0  0  0  0  0  0  0  0  0  0  0  0
    1.4273   -0.2217    0.0000 O   0  0  0  0  0  0  0  0  0  0  0  0
    1.6003    1.2683    0.0000 C   0  0  0  0  0  0  0  0  0  0  0  0
    2.9772    1.8635    0.0000 C   0  0  0  0  0  0  0  0  0  0  0  0
    3.1502    3.3535    0.0000 C   0  0  0  0  0  0  0  0  0  0  0  0
    1.9464    4.2483    0.0000 C   0  0  0  0  0  0  0  0  0  0  0  0
    0.5695    3.6531    0.0000 C   0  0  0  0  0  0  0  0  0  0  0  0
   -0.6344    4.5480    0.0000 N   0  0  0  0  0  0  0  0  0  0  0  0
   -2.0112    3.9528    0.0000 C   0  0  0  0  0  0  0  0  0  0  0  0
   -2.1843    2.4628    0.0000 N   0  0  0  0  0  0  0  0  0  0  0  0
   -0.9804    1.5680    0.0000 C   0  0  0  0  0  0  0  0  0  0  0  0
   -1.1534    0.0780    0.0000 N   0  0  0  0  0  0  0  0  0  0  0  0
   -2.5303   -0.5172    0.0000 C   0  0  0  0  0  0  0  0  0  0  0  0
   -3.7341    0.3777    0.0000 C   0  0  0  0  0  0  0  0  0  0  0  0
   -5.1110   -0.2175    0.0000 C   0  0  0  0  0  0  0  0  0  0  0  0
   -5.2840   -1.7075    0.0000 C   0  0  0  0  0  0  0  0  0  0  0  0
   -6.6609   -2.3026    0.0000 F   0  0  0  0  0  0  0  0  0  0  0  0
   -4.0802   -2.6023    0.0000 C   0  0  0  0  0  0  0  0  0  0  0  0
   -4.2532   -4.0923    0.0000 Cl  0  0  0  0  0  0  0  0  0  0  0  0
   -2.7033   -2.0072    0.0000 C   0  0  0  0  0  0  0  0  0  0  0  0
    0.3965    2.1632    0.0000 C   0  0  0  0  0  0  0  0  0  0  0  0
  1  2  1  0
  2  3  1  0
  3  4  1  0
  4  5  1  0
  5  6  1  0
  6  7  1  0
  5  8  1  0
  8  9  1  0
  9 10  1  0
 10 11  2  0
 11 12  1  0
 12 13  2  0
 13 14  1  0
 14 15  2  0
 15 16  1  0
 16 17  2  0
 17 18  1  0
 18 19  1  0
 19 20  1  0
 20 21  2  0
 21 22  1  0
 22 23  1  0
 22 24  2  0
 24 25  1  0
 24 26  1  0
 17 27  1  0
  7  2  1  0
 27  9  2  0
 27 13  1  0
 26 19  2  0
M  END
>  <ChEMBL_ID>  (132) 
CHEMBL203725

>  <SMILES>  (132) 
CN1CCC(Oc2cccc3ncnc(Nc4ccc(F)c(Cl)c4)c23)CC1

>  <MPO_Hit_Score>  (132) 
0.43659999999999999

>  <Tanimoto_to_Gefitinib>  (132) 
0.443

>  <MolecularWeight>  (132) 
386.86000000000001

>  <LogP>  (132) 
4.6399999999999997

>  <TPSA>  (132) 
50.280000000000001

$$$$
CHEMBL3805283
     RDKit          2D

 27 30  0  0  0  0  0  0  0  0999 V2000
   -7.6423   -0.3513    0.0000 C   0  0  0  0  0  0  0  0  0  0  0  0
   -6.1727   -0.6520    0.0000 C   0  0  0  0  0  0  0  0  0  0  0  0
   -5.6984   -2.0751    0.0000 C   0  0  0  0  0  0  0  0  0  0  0  0
   -5.1775    0.4703    0.0000 O   0  0  0  0  0  0  0  0  0  0  0  0
   -3.7080    0.1695    0.0000 C   0  0  0  0  0  0  0  0  0  0  0  0
   -3.2336   -1.2535    0.0000 C   0  0  0  0  0  0  0  0  0  0  0  0
   -1.7641   -1.5543    0.0000 C   0  0  0  0  0  0  0  0  0  0  0  0
   -1.2898   -2.9773    0.0000 N   0  0  0  0  0  0  0  0  0  0  0  0
    0.1798   -3.2780    0.0000 C   0  0  0  0  0  0  0  0  0  0  0  0
    1.1750   -2.1557    0.0000 N   0  0  0  0  0  0  0  0  0  0  0  0
    0.7007   -0.7327    0.0000 C   0  0  0  0  0  0  0  0  0  0  0  0
    1.6959    0.3896    0.0000 N   0  0  0  0  0  0  0  0  0  0  0  0
    3.1654    0.0888    0.0000 C   0  0  0  0  0  0  0  0  0  0  0  0
    3.6397   -1.3342    0.0000 C   0  0  0  0  0  0  0  0  0  0  0  0
    5.1093   -1.6349    0.0000 C   0  0  0  0  0  0  0  0  0  0  0  0
    6.1045   -0.5126    0.0000 C   0  0  0  0  0  0  0  0  0  0  0  0
    7.5740   -0.8134    0.0000 F   0  0  0  0  0  0  0  0  0  0  0  0
    5.6302    0.9104    0.0000 C   0  0  0  0  0  0  0  0  0  0  0  0
    6.6254    2.0327    0.0000 Cl  0  0  0  0  0  0  0  0  0  0  0  0
    4.1606    1.2111    0.0000 C   0  0  0  0  0  0  0  0  0  0  0  0
   -0.7689   -0.4320    0.0000 C   0  0  0  0  0  0  0  0  0  0  0  0
   -1.2432    0.9911    0.0000 C   0  0  0  0  0  0  0  0  0  0  0  0
   -0.2480    2.1134    0.0000 O   0  0  0  0  0  0  0  0  0  0  0  0
   -0.7223    3.5364    0.0000 C   0  0  0  0  0  0  0  0  0  0  0  0
   -2.1919    3.8371    0.0000 C   0  0  0  0  0  0  0  0  0  0  0  0
   -3.1871    2.7148    0.0000 O   0  0  0  0  0  0  0  0  0  0  0  0
   -2.7128    1.2918    0.0000 C   0  0  0  0  0  0  0  0  0  0  0  0
  1  2  1  0
  2  3  1  0
  2  4  1  0
  4  5  1  0
  5  6  2  0
  6  7  1  0
  7  8  2  0
  8  9  1  0
  9 10  2  0
 10 11  1  0
 11 12  1  0
 12 13  1  0
 13 14  1  0
 14 15  2  0
 15 16  1  0
 16 17  1  0
 16 18  2  0
 18 19  1  0
 18 20  1  0
 11 21  2  0
 21 22  1  0
 22 23  1  0
 23 24  1  0
 24 25  1  0
 25 26  1  0
 26 27  1  0
 27  5  1  0
 21  7  1  0
 20 13  2  0
 27 22  2  0
M  END
>  <ChEMBL_ID>  (133) 
CHEMBL3805283

>  <SMILES>  (133) 
CC(C)Oc1cc2ncnc(Nc3ccc(F)c(Cl)c3)c2c2c1OCCO2

>  <MPO_Hit_Score>  (133) 
0.43419999999999997

>  <Tanimoto_to_Gefitinib>  (133) 
0.45450000000000002

>  <MolecularWeight>  (133) 
389.81

>  <LogP>  (133) 
4.7199999999999998

>  <TPSA>  (133) 
65.5

$$$$
CHEMBL1203936
     RDKit          2D

 26 28  0  0  0  0  0  0  0  0999 V2000
   -6.9158    1.8543    0.0000 C   0  0  0  0  0  0  0  0  0  0  0  0
   -6.4675    0.4229    0.0000 O   0  0  0  0  0  0  0  0  0  0  0  0
   -5.0037    0.0954    0.0000 C   0  0  0  0  0  0  0  0  0  0  0  0
   -4.5554   -1.3360    0.0000 C   0  0  0  0  0  0  0  0  0  0  0  0
   -3.0916   -1.6635    0.0000 C   0  0  0  0  0  0  0  0  0  0  0  0
   -2.6433   -3.0949    0.0000 N   0  0  0  0  0  0  0  0  0  0  0  0
   -1.1794   -3.4224    0.0000 C   0  0  0  0  0  0  0  0  0  0  0  0
   -0.1639   -2.3184    0.0000 N   0  0  0  0  0  0  0  0  0  0  0  0
   -0.6123   -0.8870    0.0000 C   0  0  0  0  0  0  0  0  0  0  0  0
    0.4032    0.2170    0.0000 N   0  0  0  0  0  0  0  0  0  0  0  0
    1.8671   -0.1105    0.0000 C   0  0  0  0  0  0  0  0  0  0  0  0
    2.3154   -1.5419    0.0000 C   0  0  0  0  0  0  0  0  0  0  0  0
    3.7792   -1.8694    0.0000 C   0  0  0  0  0  0  0  0  0  0  0  0
    4.2275   -3.3008    0.0000 F   0  0  0  0  0  0  0  0  0  0  0  0
    4.7947   -0.7654    0.0000 C   0  0  0  0  0  0  0  0  0  0  0  0
    4.3464    0.6660    0.0000 C   0  0  0  0  0  0  0  0  0  0  0  0
    2.8826    0.9935    0.0000 C   0  0  0  0  0  0  0  0  0  0  0  0
    5.3619    1.7700    0.0000 C   0  0  0  0  0  0  0  0  0  0  0  0
    6.3774    2.8740    0.0000 F   0  0  0  0  0  0  0  0  0  0  0  0
    6.4659    0.7545    0.0000 F   0  0  0  0  0  0  0  0  0  0  0  0
    4.2579    2.7855    0.0000 F   0  0  0  0  0  0  0  0  0  0  0  0
   -2.0761   -0.5595    0.0000 C   0  0  0  0  0  0  0  0  0  0  0  0
   -2.5244    0.8719    0.0000 C   0  0  0  0  0  0  0  0  0  0  0  0
   -3.9882    1.1994    0.0000 C   0  0  0  0  0  0  0  0  0  0  0  0
   -4.4365    2.6308    0.0000 O   0  0  0  0  0  0  0  0  0  0  0  0
   -3.4210    3.7348    0.0000 C   0  0  0  0  0  0  0  0  0  0  0  0
  1  2  1  0
  2  3  1  0
  3  4  2  0
  4  5  1  0
  5  6  2  0
  6  7  1  0
  7  8  2  0
  8  9  1  0
  9 10  1  0
 10 11  1  0
 11 12  1  0
 12 13  2  0
 13 14  1  0
 13 15  1  0
 15 16  2  0
 16 17  1  0
 16 18  1  0
 18 19  1  0
 18 20  1  0
 18 21  1  0
  9 22  2  0
 22 23  1  0
 23 24  2  0
 24 25  1  0
 25 26  1  0
 24  3  1  0
 22  5  1  0
 17 11  2  0
M  END
>  <ChEMBL_ID>  (134) 
CHEMBL1203936

>  <SMILES>  (134) 
COc1cc2ncnc(Nc3cc(F)cc(C(F)(F)F)c3)c2cc1OC

>  <MPO_Hit_Score>  (134) 
0.43359999999999999

>  <Tanimoto_to_Gefitinib>  (134) 
0.41670000000000001

>  <MolecularWeight>  (134) 
367.30000000000001

>  <LogP>  (134) 
4.5499999999999998

>  <TPSA>  (134) 
56.270000000000003

$$$$
CHEMBL3092319
     RDKit          2D

 33 37  0  0  0  0  0  0  0  0999 V2000
   -6.7309   -5.6436    0.0000 F   0  0  0  0  0  0  0  0  0  0  0  0
   -5.8474   -4.4313    0.0000 C   0  0  0  0  0  0  0  0  0  0  0  0
   -6.0799   -2.9494    0.0000 C   0  0  0  0  0  0  0  0  0  0  0  0
   -4.5980   -2.7170    0.0000 N   0  0  0  0  0  0  0  0  0  0  0  0
   -4.3655   -4.1988    0.0000 C   0  0  0  0  0  0  0  0  0  0  0  0
   -3.7146   -1.5047    0.0000 C   0  0  0  0  0  0  0  0  0  0  0  0
   -4.3227   -0.1335    0.0000 O   0  0  0  0  0  0  0  0  0  0  0  0
   -2.2230   -1.6637    0.0000 N   0  0  0  0  0  0  0  0  0  0  0  0
   -1.3396   -0.4515    0.0000 C   0  0  0  0  0  0  0  0  0  0  0  0
    0.1520   -0.6104    0.0000 C   0  0  0  0  0  0  0  0  0  0  0  0
    1.0354    0.6018    0.0000 C   0  0  0  0  0  0  0  0  0  0  0  0
    2.5270    0.4428    0.0000 C   0  0  0  0  0  0  0  0  0  0  0  0
    3.1351   -0.9284    0.0000 N   0  0  0  0  0  0  0  0  0  0  0  0
    4.6266   -1.0874    0.0000 C   0  0  0  0  0  0  0  0  0  0  0  0
    5.2347   -2.4586    0.0000 C   0  0  0  0  0  0  0  0  0  0  0  0
    6.7263   -2.6175    0.0000 C   0  0  0  0  0  0  0  0  0  0  0  0
    7.6097   -1.4053    0.0000 C   0  0  0  0  0  0  0  0  0  0  0  0
    9.1013   -1.5643    0.0000 F   0  0  0  0  0  0  0  0  0  0  0  0
    7.0016   -0.0341    0.0000 C   0  0  0  0  0  0  0  0  0  0  0  0
    7.8851    1.1781    0.0000 Cl  0  0  0  0  0  0  0  0  0  0  0  0
    5.5101    0.1249    0.0000 C   0  0  0  0  0  0  0  0  0  0  0  0
    3.4104    1.6551    0.0000 N   0  0  0  0  0  0  0  0  0  0  0  0
    2.8023    3.0263    0.0000 C   0  0  0  0  0  0  0  0  0  0  0  0
    1.3108    3.1852    0.0000 N   0  0  0  0  0  0  0  0  0  0  0  0
    0.4273    1.9730    0.0000 C   0  0  0  0  0  0  0  0  0  0  0  0
   -1.0642    2.1320    0.0000 C   0  0  0  0  0  0  0  0  0  0  0  0
   -1.9477    0.9197    0.0000 C   0  0  0  0  0  0  0  0  0  0  0  0
   -3.4392    1.0787    0.0000 O   0  0  0  0  0  0  0  0  0  0  0  0
   -4.0473    2.4499    0.0000 C   0  0  0  0  0  0  0  0  0  0  0  0
   -5.5141    2.7639    0.0000 C   0  0  0  0  0  0  0  0  0  0  0  0
   -5.6687    4.2559    0.0000 C   0  0  0  0  0  0  0  0  0  0  0  0
   -4.2975    4.8641    0.0000 O   0  0  0  0  0  0  0  0  0  0  0  0
   -3.2954    3.7479    0.0000 C   0  0  0  0  0  0  0  0  0  0  0  0
  1  2  1  0
  2  3  1  0
  3  4  1  0
  4  5  1  0
  4  6  1  0
  6  7  2  0
  6  8  1  0
  8  9  1  0
  9 10  2  0
 10 11  1  0
 11 12  2  0
 12 13  1  0
 13 14  1  0
 14 15  1  0
 15 16  2  0
 16 17  1  0
 17 18  1  0
 17 19  2  0
 19 20  1  0
 19 21  1  0
 12 22  1  0
 22 23  2  0
 23 24  1  0
 24 25  2  0
 25 26  1  0
 26 27  2  0
 27 28  1  0
 29 28  1  1
 29 30  1  0
 30 31  1  0
 31 32  1  0
 32 33  1  0
  5  2  1  0
 27  9  1  0
 25 11  1  0
 21 14  2  0
 33 29  1  0
M  END
>  <ChEMBL_ID>  (135) 
CHEMBL3092319

>  <SMILES>  (135) 
O=C(Nc1cc2c(Nc3ccc(F)c(Cl)c3)ncnc2cc1O[C@H]1CCOC1)N1CC(F)C1

>  <MPO_Hit_Score>  (135) 
0.43099999999999999

>  <Tanimoto_to_Gefitinib>  (135) 
0.45450000000000002

>  <MolecularWeight>  (135) 
475.88

>  <LogP>  (135) 
4.5199999999999996

>  <TPSA>  (135) 
88.609999999999999

$$$$
CHEMBL2333985
     RDKit          2D

 25 27  0  0  0  0  0  0  0  0999 V2000
   -7.1676    1.1638    0.0000 C   0  0  0  0  0  0  0  0  0  0  0  0
   -6.5074   -0.1831    0.0000 O   0  0  0  0  0  0  0  0  0  0  0  0
   -5.0108   -0.2847    0.0000 C   0  0  0  0  0  0  0  0  0  0  0  0
   -4.3505   -1.6316    0.0000 C   0  0  0  0  0  0  0  0  0  0  0  0
   -2.8540   -1.7332    0.0000 C   0  0  0  0  0  0  0  0  0  0  0  0
   -2.1937   -3.0801    0.0000 N   0  0  0  0  0  0  0  0  0  0  0  0
   -0.6972   -3.1817    0.0000 C   0  0  0  0  0  0  0  0  0  0  0  0
    0.1391   -1.9365    0.0000 N   0  0  0  0  0  0  0  0  0  0  0  0
   -0.5211   -0.5896    0.0000 C   0  0  0  0  0  0  0  0  0  0  0  0
    0.3151    0.6557    0.0000 N   0  0  0  0  0  0  0  0  0  0  0  0
    1.8117    0.5540    0.0000 C   0  0  0  0  0  0  0  0  0  0  0  0
    2.4720   -0.7928    0.0000 C   0  0  0  0  0  0  0  0  0  0  0  0
    3.9685   -0.8945    0.0000 C   0  0  0  0  0  0  0  0  0  0  0  0
    4.8048    0.3508    0.0000 C   0  0  0  0  0  0  0  0  0  0  0  0
    4.1445    1.6977    0.0000 C   0  0  0  0  0  0  0  0  0  0  0  0
    2.6480    1.7993    0.0000 C   0  0  0  0  0  0  0  0  0  0  0  0
    6.3014    0.2492    0.0000 C   0  0  0  0  0  0  0  0  0  0  0  0
    7.7979    0.1475    0.0000 C   0  0  0  0  0  0  0  0  0  0  0  0
    6.4030    1.7457    0.0000 F   0  0  0  0  0  0  0  0  0  0  0  0
    6.1997   -1.2474    0.0000 F   0  0  0  0  0  0  0  0  0  0  0  0
   -2.0177   -0.4880    0.0000 C   0  0  0  0  0  0  0  0  0  0  0  0
   -2.6780    0.8589    0.0000 C   0  0  0  0  0  0  0  0  0  0  0  0
   -4.1745    0.9605    0.0000 C   0  0  0  0  0  0  0  0  0  0  0  0
   -4.8348    2.3074    0.0000 O   0  0  0  0  0  0  0  0  0  0  0  0
   -3.9985    3.5526    0.0000 C   0  0  0  0  0  0  0  0  0  0  0  0
  1  2  1  0
  2  3  1  0
  3  4  2  0
  4  5  1  0
  5  6  2  0
  6  7  1  0
  7  8  2  0
  8  9  1  0
  9 10  1  0
 10 11  1  0
 11 12  1  0
 12 13  2  0
 13 14  1  0
 14 15  2  0
 15 16  1  0
 14 17  1  0
 17 18  1  0
 17 19  1  0
 17 20  1  0
  9 21  2  0
 21 22  1  0
 22 23  2  0
 23 24  1  0
 24 25  1  0
 23  3  1  0
 21  5  1  0
 16 11  2  0
M  END
>  <ChEMBL_ID>  (136) 
CHEMBL2333985

>  <SMILES>  (136) 
COc1cc2ncnc(Nc3ccc(C(C)(F)F)cc3)c2cc1OC

>  <MPO_Hit_Score>  (136) 
0.43080000000000002

>  <Tanimoto_to_Gefitinib>  (136) 
0.44929999999999998

>  <MolecularWeight>  (136) 
345.35000000000002

>  <LogP>  (136) 
4.5

>  <TPSA>  (136) 
56.270000000000003

$$$$
CHEMBL597950
     RDKit          2D

 25 27  0  0  0  0  0  0  0  0999 V2000
   -5.4215   -2.0597    0.0000 O   0  0  0  0  0  0  0  0  0  0  0  0
   -3.9337   -1.8683    0.0000 C   0  0  0  0  0  0  0  0  0  0  0  0
   -3.0241   -3.0610    0.0000 C   0  0  0  0  0  0  0  0  0  0  0  0
   -1.5363   -2.8696    0.0000 C   0  0  0  0  0  0  0  0  0  0  0  0
   -0.6267   -4.0623    0.0000 N   0  0  0  0  0  0  0  0  0  0  0  0
    0.8610   -3.8708    0.0000 C   0  0  0  0  0  0  0  0  0  0  0  0
    1.4391   -2.4867    0.0000 N   0  0  0  0  0  0  0  0  0  0  0  0
    0.5295   -1.2940    0.0000 C   0  0  0  0  0  0  0  0  0  0  0  0
    1.1076    0.0901    0.0000 N   0  0  0  0  0  0  0  0  0  0  0  0
    2.5953    0.2816    0.0000 C   0  0  0  0  0  0  0  0  0  0  0  0
    3.5049   -0.9111    0.0000 C   0  0  0  0  0  0  0  0  0  0  0  0
    4.9927   -0.7197    0.0000 C   0  0  0  0  0  0  0  0  0  0  0  0
    5.5708    0.6644    0.0000 C   0  0  0  0  0  0  0  0  0  0  0  0
    7.0585    0.8558    0.0000 F   0  0  0  0  0  0  0  0  0  0  0  0
    4.6611    1.8571    0.0000 C   0  0  0  0  0  0  0  0  0  0  0  0
    5.2392    3.2412    0.0000 Cl  0  0  0  0  0  0  0  0  0  0  0  0
    3.1734    1.6657    0.0000 C   0  0  0  0  0  0  0  0  0  0  0  0
   -0.9583   -1.4854    0.0000 C   0  0  0  0  0  0  0  0  0  0  0  0
   -1.8679   -0.2927    0.0000 C   0  0  0  0  0  0  0  0  0  0  0  0
   -3.3556   -0.4842    0.0000 C   0  0  0  0  0  0  0  0  0  0  0  0
   -4.2653    0.7085    0.0000 O   0  0  0  0  0  0  0  0  0  0  0  0
   -3.6872    2.0927    0.0000 C   0  0  0  0  0  0  0  0  0  0  0  0
   -4.5969    3.2854    0.0000 C   0  0  0  0  0  0  0  0  0  0  0  0
   -4.0188    4.6695    0.0000 C   0  0  0  0  0  0  0  0  0  0  0  0
   -3.4407    6.0536    0.0000 C   0  0  0  0  0  0  0  0  0  0  0  0
  1  2  1  0
  2  3  2  0
  3  4  1  0
  4  5  2  0
  5  6  1  0
  6  7  2  0
  7  8  1  0
  8  9  1  0
  9 10  1  0
 10 11  1  0
 11 12  2  0
 12 13  1  0
 13 14  1  0
 13 15  2  0
 15 16  1  0
 15 17  1  0
  8 18  2  0
 18 19  1  0
 19 20  2  0
 20 21  1  0
 21 22  1  0
 22 23  1  0
 23 24  2  0
 24 25  2  0
 20  2  1  0
 18  4  1  0
 17 10  2  0
M  END
>  <ChEMBL_ID>  (137) 
CHEMBL597950

>  <SMILES>  (137) 
C=C=CCOc1cc2c(Nc3ccc(F)c(Cl)c3)ncnc2cc1O

>  <MPO_Hit_Score>  (137) 
0.4294

>  <Tanimoto_to_Gefitinib>  (137) 
0.46750000000000003

>  <MolecularWeight>  (137) 
357.76999999999998

>  <LogP>  (137) 
4.5899999999999999

>  <TPSA>  (137) 
67.269999999999996

$$$$
CHEMBL2064396
     RDKit          2D

 34 38  0  0  0  0  0  0  0  0999 V2000
    7.2172   -4.0426    0.0000 C   0  0  0  0  0  0  0  0  0  0  0  0
    7.8793   -2.6966    0.0000 C   0  0  0  0  0  0  0  0  0  0  0  0
    8.5414   -1.3507    0.0000 C   0  0  0  0  0  0  0  0  0  0  0  0
    9.2253   -3.3587    0.0000 C   0  0  0  0  0  0  0  0  0  0  0  0
    6.5334   -2.0345    0.0000 C   0  0  0  0  0  0  0  0  0  0  0  0
    5.2870   -2.8691    0.0000 C   0  0  0  0  0  0  0  0  0  0  0  0
    3.9410   -2.2070    0.0000 C   0  0  0  0  0  0  0  0  0  0  0  0
    3.8414   -0.7103    0.0000 C   0  0  0  0  0  0  0  0  0  0  0  0
    2.4955   -0.0482    0.0000 N   0  0  0  0  0  0  0  0  0  0  0  0
    2.3959    1.4485    0.0000 C   0  0  0  0  0  0  0  0  0  0  0  0
    3.6423    2.2831    0.0000 N   0  0  0  0  0  0  0  0  0  0  0  0
    3.5427    3.7798    0.0000 C   0  0  0  0  0  0  0  0  0  0  0  0
    2.1968    4.4419    0.0000 N   0  0  0  0  0  0  0  0  0  0  0  0
    0.9504    3.6073    0.0000 C   0  0  0  0  0  0  0  0  0  0  0  0
   -0.3956    4.2695    0.0000 C   0  0  0  0  0  0  0  0  0  0  0  0
   -1.6420    3.4349    0.0000 C   0  0  0  0  0  0  0  0  0  0  0  0
   -3.0962    3.8027    0.0000 O   0  0  0  0  0  0  0  0  0  0  0  0
   -3.8953    2.5333    0.0000 C   0  0  0  0  0  0  0  0  0  0  0  0
   -5.3920    2.4338    0.0000 O   0  0  0  0  0  0  0  0  0  0  0  0
   -2.9351    1.3810    0.0000 N   0  0  0  0  0  0  0  0  0  0  0  0
   -3.3029   -0.0732    0.0000 C   0  0  0  0  0  0  0  0  0  0  0  0
   -4.7462   -0.4818    0.0000 C   0  0  0  0  0  0  0  0  0  0  0  0
   -5.1140   -1.9360    0.0000 C   0  0  0  0  0  0  0  0  0  0  0  0
   -6.5572   -2.3446    0.0000 N   0  0  0  0  0  0  0  0  0  0  0  0
   -7.6327   -1.2989    0.0000 C   0  0  0  0  0  0  0  0  0  0  0  0
   -9.0760   -1.7075    0.0000 C   0  0  0  0  0  0  0  0  0  0  0  0
   -9.4438   -3.1617    0.0000 O   0  0  0  0  0  0  0  0  0  0  0  0
   -8.3683   -4.2073    0.0000 C   0  0  0  0  0  0  0  0  0  0  0  0
   -6.9251   -3.7988    0.0000 C   0  0  0  0  0  0  0  0  0  0  0  0
   -1.5424    1.9382    0.0000 C   0  0  0  0  0  0  0  0  0  0  0  0
   -0.1964    1.2761    0.0000 C   0  0  0  0  0  0  0  0  0  0  0  0
    1.0500    2.1107    0.0000 C   0  0  0  0  0  0  0  0  0  0  0  0
    5.0878    0.1243    0.0000 C   0  0  0  0  0  0  0  0  0  0  0  0
    6.4338   -0.5378    0.0000 C   0  0  0  0  0  0  0  0  0  0  0  0
  1  2  1  0
  2  3  1  0
  2  4  1  0
  2  5  1  0
  5  6  1  0
  6  7  2  0
  7  8  1  0
  8  9  1  0
  9 10  1  0
 10 11  1  0
 11 12  2  0
 12 13  1  0
 13 14  2  0
 14 15  1  0
 15 16  2  0
 16 17  1  0
 17 18  1  0
 18 19  2  0
 18 20  1  0
 20 21  1  0
 21 22  1  0
 22 23  1  0
 23 24  1  0
 24 25  1  0
 25 26  1  0
 26 27  1  0
 27 28  1  0
 28 29  1  0
 20 30  1  0
 30 31  2  0
 31 32  1  0
  8 33  2  0
 33 34  1  0
 34  5  2  0
 32 10  2  0
 32 14  1  0
 30 16  1  0
 29 24  1  0
M  END
>  <ChEMBL_ID>  (138) 
CHEMBL2064396

>  <SMILES>  (138) 
CC(C)(C)c1ccc(Nc2ncnc3cc4oc(=O)n(CCCN5CCOCC5)c4cc23)cc1

>  <MPO_Hit_Score>  (138) 
0.42759999999999998

>  <Tanimoto_to_Gefitinib>  (138) 
0.4405

>  <MolecularWeight>  (138) 
461.56999999999999

>  <LogP>  (138) 
4.2999999999999998

>  <TPSA>  (138) 
85.420000000000002

$$$$
CHEMBL1203940
     RDKit          2D

 24 26  0  0  0  0  0  0  0  0999 V2000
   -7.3266    0.2946    0.0000 C   0  0  0  0  0  0  0  0  0  0  0  0
   -5.8274    0.3452    0.0000 C   0  0  0  0  0  0  0  0  0  0  0  0
   -5.0341   -0.9279    0.0000 O   0  0  0  0  0  0  0  0  0  0  0  0
   -3.5350   -0.8773    0.0000 C   0  0  0  0  0  0  0  0  0  0  0  0
   -2.7416   -2.1504    0.0000 C   0  0  0  0  0  0  0  0  0  0  0  0
   -1.2425   -2.0999    0.0000 C   0  0  0  0  0  0  0  0  0  0  0  0
   -0.4491   -3.3729    0.0000 N   0  0  0  0  0  0  0  0  0  0  0  0
    1.0500   -3.3224    0.0000 C   0  0  0  0  0  0  0  0  0  0  0  0
    1.7558   -1.9988    0.0000 N   0  0  0  0  0  0  0  0  0  0  0  0
    0.9625   -0.7258    0.0000 C   0  0  0  0  0  0  0  0  0  0  0  0
    1.6683    0.5978    0.0000 N   0  0  0  0  0  0  0  0  0  0  0  0
    3.1675    0.6483    0.0000 C   0  0  0  0  0  0  0  0  0  0  0  0
    3.9608   -0.6247    0.0000 C   0  0  0  0  0  0  0  0  0  0  0  0
    5.4599   -0.5742    0.0000 C   0  0  0  0  0  0  0  0  0  0  0  0
    6.1658    0.7494    0.0000 C   0  0  0  0  0  0  0  0  0  0  0  0
    7.6649    0.7999    0.0000 F   0  0  0  0  0  0  0  0  0  0  0  0
    5.3724    2.0224    0.0000 C   0  0  0  0  0  0  0  0  0  0  0  0
    3.8733    1.9719    0.0000 C   0  0  0  0  0  0  0  0  0  0  0  0
   -0.5367   -0.7763    0.0000 C   0  0  0  0  0  0  0  0  0  0  0  0
   -1.3300    0.4967    0.0000 C   0  0  0  0  0  0  0  0  0  0  0  0
   -2.8291    0.4462    0.0000 C   0  0  0  0  0  0  0  0  0  0  0  0
   -3.6225    1.7193    0.0000 O   0  0  0  0  0  0  0  0  0  0  0  0
   -2.9166    3.0428    0.0000 C   0  0  0  0  0  0  0  0  0  0  0  0
   -3.7100    4.3159    0.0000 C   0  0  0  0  0  0  0  0  0  0  0  0
  1  2  1  0
  2  3  1  0
  3  4  1  0
  4  5  2  0
  5  6  1  0
  6  7  2  0
  7  8  1  0
  8  9  2  0
  9 10  1  0
 10 11  1  0
 11 12  1  0
 12 13  1  0
 13 14  2  0
 14 15  1  0
 15 16  1  0
 15 17  2  0
 17 18  1  0
 10 19  2  0
 19 20  1  0
 20 21  2  0
 21 22  1  0
 22 23  1  0
 23 24  1  0
 21  4  1  0
 19  6  1  0
 18 12  2  0
M  END
>  <ChEMBL_ID>  (139) 
CHEMBL1203940

>  <SMILES>  (139) 
CCOc1cc2ncnc(Nc3ccc(F)cc3)c2cc1OCC

>  <MPO_Hit_Score>  (139) 
0.42659999999999998

>  <Tanimoto_to_Gefitinib>  (139) 
0.44119999999999998

>  <MolecularWeight>  (139) 
327.36000000000001

>  <LogP>  (139) 
4.3099999999999996

>  <TPSA>  (139) 
56.270000000000003

$$$$
CHEMBL214631
     RDKit          2D

 29 32  0  0  0  0  0  0  0  0999 V2000
   -5.4070   -2.3795    0.0000 C   0  0  0  0  0  0  0  0  0  0  0  0
   -4.2533   -3.3381    0.0000 O   0  0  0  0  0  0  0  0  0  0  0  0
   -2.8463   -2.8183    0.0000 C   0  0  0  0  0  0  0  0  0  0  0  0
   -1.6926   -3.7770    0.0000 C   0  0  0  0  0  0  0  0  0  0  0  0
   -0.2855   -3.2572    0.0000 C   0  0  0  0  0  0  0  0  0  0  0  0
    0.8681   -4.2158    0.0000 N   0  0  0  0  0  0  0  0  0  0  0  0
    2.2752   -3.6961    0.0000 C   0  0  0  0  0  0  0  0  0  0  0  0
    2.5286   -2.2176    0.0000 N   0  0  0  0  0  0  0  0  0  0  0  0
    1.3749   -1.2590    0.0000 C   0  0  0  0  0  0  0  0  0  0  0  0
    1.6283    0.2195    0.0000 N   0  0  0  0  0  0  0  0  0  0  0  0
    3.0353    0.7393    0.0000 C   0  0  0  0  0  0  0  0  0  0  0  0
    4.1890   -0.2194    0.0000 C   0  0  0  0  0  0  0  0  0  0  0  0
    5.5961    0.3004    0.0000 C   0  0  0  0  0  0  0  0  0  0  0  0
    6.7498   -0.6582    0.0000 Cl  0  0  0  0  0  0  0  0  0  0  0  0
    5.8495    1.7789    0.0000 C   0  0  0  0  0  0  0  0  0  0  0  0
    4.6958    2.7375    0.0000 C   0  0  0  0  0  0  0  0  0  0  0  0
    3.2887    2.2177    0.0000 C   0  0  0  0  0  0  0  0  0  0  0  0
    2.1350    3.1764    0.0000 F   0  0  0  0  0  0  0  0  0  0  0  0
   -0.0322   -1.7787    0.0000 C   0  0  0  0  0  0  0  0  0  0  0  0
   -1.1858   -0.8201    0.0000 C   0  0  0  0  0  0  0  0  0  0  0  0
   -2.5929   -1.3399    0.0000 C   0  0  0  0  0  0  0  0  0  0  0  0
   -3.7466   -0.3812    0.0000 O   0  0  0  0  0  0  0  0  0  0  0  0
   -3.4932    1.0972    0.0000 C   0  0  0  0  0  0  0  0  0  0  0  0
   -2.0861    1.6170    0.0000 C   0  0  0  0  0  0  0  0  0  0  0  0
   -1.8328    3.0955    0.0000 C   0  0  0  0  0  0  0  0  0  0  0  0
   -2.9864    4.0541    0.0000 N   0  0  0  0  0  0  0  0  0  0  0  0
   -2.7331    5.5326    0.0000 C   0  0  0  0  0  0  0  0  0  0  0  0
   -4.3935    3.5343    0.0000 C   0  0  0  0  0  0  0  0  0  0  0  0
   -4.6469    2.0559    0.0000 C   0  0  0  0  0  0  0  0  0  0  0  0
  1  2  1  0
  2  3  1  0
  3  4  2  0
  4  5  1  0
  5  6  2  0
  6  7  1  0
  7  8  2  0
  8  9  1  0
  9 10  1  0
 10 11  1  0
 11 12  1  0
 12 13  2  0
 13 14  1  0
 13 15  1  0
 15 16  2  0
 16 17  1  0
 17 18  1  0
  9 19  2  0
 19 20  1  0
 20 21  2  0
 21 22  1  0
 22 23  1  0
 23 24  1  0
 24 25  1  0
 25 26  1  0
 26 27  1  0
 26 28  1  0
 28 29  1  0
 21  3  1  0
 19  5  1  0
 17 11  2  0
 29 23  1  0
M  END
>  <ChEMBL_ID>  (140) 
CHEMBL214631

>  <SMILES>  (140) 
COc1cc2ncnc(Nc3cc(Cl)ccc3F)c2cc1OC1CCN(C)CC1

>  <MPO_Hit_Score>  (140) 
0.42630000000000001

>  <Tanimoto_to_Gefitinib>  (140) 
0.47439999999999999

>  <MolecularWeight>  (140) 
416.88

>  <LogP>  (140) 
4.6500000000000004

>  <TPSA>  (140) 
59.509999999999998

$$$$
CHEMBL40130
     RDKit          2D

 29 33  0  0  0  0  0  0  0  0999 V2000
   -7.9808   -2.3335    0.0000 Br  0  0  0  0  0  0  0  0  0  0  0  0
   -7.4518   -0.9299    0.0000 C   0  0  0  0  0  0  0  0  0  0  0  0
   -8.4029    0.2301    0.0000 C   0  0  0  0  0  0  0  0  0  0  0  0
   -7.8740    1.6337    0.0000 C   0  0  0  0  0  0  0  0  0  0  0  0
   -6.3939    1.8774    0.0000 C   0  0  0  0  0  0  0  0  0  0  0  0
   -5.4428    0.7175    0.0000 C   0  0  0  0  0  0  0  0  0  0  0  0
   -3.9627    0.9612    0.0000 N   0  0  0  0  0  0  0  0  0  0  0  0
   -3.0116   -0.1987    0.0000 C   0  0  0  0  0  0  0  0  0  0  0  0
   -3.5406   -1.6023    0.0000 N   0  0  0  0  0  0  0  0  0  0  0  0
   -2.5895   -2.7622    0.0000 C   0  0  0  0  0  0  0  0  0  0  0  0
   -1.1094   -2.5185    0.0000 N   0  0  0  0  0  0  0  0  0  0  0  0
   -0.5805   -1.1149    0.0000 C   0  0  0  0  0  0  0  0  0  0  0  0
    0.8996   -0.8711    0.0000 C   0  0  0  0  0  0  0  0  0  0  0  0
    1.4286    0.5325    0.0000 C   0  0  0  0  0  0  0  0  0  0  0  0
    0.4775    1.6924    0.0000 C   0  0  0  0  0  0  0  0  0  0  0  0
    1.2867    2.9554    0.0000 C   0  0  0  0  0  0  0  0  0  0  0  0
    2.7379    2.5761    0.0000 C   0  0  0  0  0  0  0  0  0  0  0  0
    2.8256    1.0786    0.0000 N   0  0  0  0  0  0  0  0  0  0  0  0
    4.0886    0.2694    0.0000 C   0  0  0  0  0  0  0  0  0  0  0  0
    5.4209    0.9586    0.0000 C   0  0  0  0  0  0  0  0  0  0  0  0
    6.6839    0.1493    0.0000 N   0  0  0  0  0  0  0  0  0  0  0  0
    6.6146   -1.3491    0.0000 C   0  0  0  0  0  0  0  0  0  0  0  0
    7.8776   -2.1583    0.0000 C   0  0  0  0  0  0  0  0  0  0  0  0
    9.2099   -1.4691    0.0000 O   0  0  0  0  0  0  0  0  0  0  0  0
    9.2792    0.0293    0.0000 C   0  0  0  0  0  0  0  0  0  0  0  0
    8.0162    0.8385    0.0000 C   0  0  0  0  0  0  0  0  0  0  0  0
   -1.0026    1.4487    0.0000 C   0  0  0  0  0  0  0  0  0  0  0  0
   -1.5316    0.0451    0.0000 C   0  0  0  0  0  0  0  0  0  0  0  0
   -5.9718   -0.6861    0.0000 C   0  0  0  0  0  0  0  0  0  0  0  0
  1  2  1  0
  2  3  1  0
  3  4  2  0
  4  5  1  0
  5  6  2  0
  6  7  1  0
  7  8  1  0
  8  9  1  0
  9 10  2  0
 10 11  1  0
 11 12  2  0
 12 13  1  0
 13 14  2  0
 14 15  1  0
 15 16  1  0
 16 17  2  0
 17 18  1  0
 18 19  1  0
 19 20  1  0
 20 21  1  0
 21 22  1  0
 22 23  1  0
 23 24  1  0
 24 25  1  0
 25 26  1  0
 15 27  2  0
 27 28  1  0
  6 29  1  0
 29  2  2  0
 28  8  2  0
 28 12  1  0
 18 14  1  0
 26 21  1  0
M  END
>  <ChEMBL_ID>  (141) 
CHEMBL40130

>  <SMILES>  (141) 
Brc1cccc(Nc2ncnc3cc4c(ccn4CCN4CCOCC4)cc23)c1

>  <MPO_Hit_Score>  (141) 
0.42609999999999998

>  <Tanimoto_to_Gefitinib>  (141) 
0.41980000000000001

>  <MolecularWeight>  (141) 
452.36000000000001

>  <LogP>  (141) 
4.4199999999999999

>  <TPSA>  (141) 
55.210000000000001

$$$$
CHEMBL205783
     RDKit          2D

 28 31  0  0  0  0  0  0  0  0999 V2000
   -5.6532    3.5829    0.0000 C   0  0  0  0  0  0  0  0  0  0  0  0
   -5.1391    2.1738    0.0000 O   0  0  0  0  0  0  0  0  0  0  0  0
   -3.6617    1.9145    0.0000 C   0  0  0  0  0  0  0  0  0  0  0  0
   -3.1475    0.5053    0.0000 C   0  0  0  0  0  0  0  0  0  0  0  0
   -1.6701    0.2460    0.0000 C   0  0  0  0  0  0  0  0  0  0  0  0
   -1.1560   -1.1631    0.0000 O   0  0  0  0  0  0  0  0  0  0  0  0
   -2.1193   -2.3129    0.0000 C   0  0  0  0  0  0  0  0  0  0  0  0
   -3.5967   -2.0536    0.0000 C   0  0  0  0  0  0  0  0  0  0  0  0
   -4.5600   -3.2034    0.0000 C   0  0  0  0  0  0  0  0  0  0  0  0
   -4.0458   -4.6126    0.0000 O   0  0  0  0  0  0  0  0  0  0  0  0
   -2.5684   -4.8719    0.0000 C   0  0  0  0  0  0  0  0  0  0  0  0
   -1.6051   -3.7221    0.0000 C   0  0  0  0  0  0  0  0  0  0  0  0
   -0.7068    1.3959    0.0000 C   0  0  0  0  0  0  0  0  0  0  0  0
    0.7706    1.1365    0.0000 C   0  0  0  0  0  0  0  0  0  0  0  0
    1.2847   -0.2726    0.0000 N   0  0  0  0  0  0  0  0  0  0  0  0
    2.7621   -0.5319    0.0000 C   0  0  0  0  0  0  0  0  0  0  0  0
    3.2763   -1.9410    0.0000 C   0  0  0  0  0  0  0  0  0  0  0  0
    4.7537   -2.2004    0.0000 C   0  0  0  0  0  0  0  0  0  0  0  0
    5.7170   -1.0505    0.0000 C   0  0  0  0  0  0  0  0  0  0  0  0
    7.1944   -1.3098    0.0000 F   0  0  0  0  0  0  0  0  0  0  0  0
    5.2028    0.3586    0.0000 C   0  0  0  0  0  0  0  0  0  0  0  0
    6.1661    1.5084    0.0000 Cl  0  0  0  0  0  0  0  0  0  0  0  0
    3.7254    0.6179    0.0000 C   0  0  0  0  0  0  0  0  0  0  0  0
    1.7339    2.2864    0.0000 N   0  0  0  0  0  0  0  0  0  0  0  0
    1.2197    3.6955    0.0000 C   0  0  0  0  0  0  0  0  0  0  0  0
   -0.2577    3.9548    0.0000 N   0  0  0  0  0  0  0  0  0  0  0  0
   -1.2210    2.8050    0.0000 C   0  0  0  0  0  0  0  0  0  0  0  0
   -2.6984    3.0643    0.0000 C   0  0  0  0  0  0  0  0  0  0  0  0
  1  2  1  0
  2  3  1  0
  3  4  1  0
  4  5  2  0
  5  6  1  0
  6  7  1  0
  7  8  1  0
  8  9  1  0
  9 10  1  0
 10 11  1  0
 11 12  1  0
  5 13  1  0
 13 14  2  0
 14 15  1  0
 15 16  1  0
 16 17  1  0
 17 18  2  0
 18 19  1  0
 19 20  1  0
 19 21  2  0
 21 22  1  0
 21 23  1  0
 14 24  1  0
 24 25  2  0
 25 26  1  0
 26 27  2  0
 27 28  1  0
 28  3  2  0
 12  7  1  0
 27 13  1  0
 23 16  2  0
M  END
>  <ChEMBL_ID>  (142) 
CHEMBL205783

>  <SMILES>  (142) 
COc1cc(OC2CCOCC2)c2c(Nc3ccc(F)c(Cl)c3)ncnc2c1

>  <MPO_Hit_Score>  (142) 
0.42459999999999998

>  <Tanimoto_to_Gefitinib>  (142) 
0.48720000000000002

>  <MolecularWeight>  (142) 
403.83999999999997

>  <LogP>  (142) 
4.7300000000000004

>  <TPSA>  (142) 
65.5

$$$$
CHEMBL3092306
     RDKit          2D

 34 37  0  0  0  0  0  0  0  0999 V2000
   -9.0905   -4.3611    0.0000 C   0  0  0  0  0  0  0  0  0  0  0  0
   -8.1449   -3.1967    0.0000 N   0  0  0  0  0  0  0  0  0  0  0  0
   -8.6805   -1.7956    0.0000 C   0  0  0  0  0  0  0  0  0  0  0  0
   -6.6637   -3.4333    0.0000 C   0  0  0  0  0  0  0  0  0  0  0  0
   -5.7181   -2.2689    0.0000 C   0  0  0  0  0  0  0  0  0  0  0  0
   -4.2369   -2.5056    0.0000 N   0  0  0  0  0  0  0  0  0  0  0  0
   -3.2913   -1.3411    0.0000 C   0  0  0  0  0  0  0  0  0  0  0  0
   -3.8270    0.0600    0.0000 O   0  0  0  0  0  0  0  0  0  0  0  0
   -1.8101   -1.5778    0.0000 N   0  0  0  0  0  0  0  0  0  0  0  0
   -0.8646   -0.4133    0.0000 C   0  0  0  0  0  0  0  0  0  0  0  0
    0.6166   -0.6500    0.0000 C   0  0  0  0  0  0  0  0  0  0  0  0
    1.5622    0.5144    0.0000 C   0  0  0  0  0  0  0  0  0  0  0  0
    3.0434    0.2778    0.0000 C   0  0  0  0  0  0  0  0  0  0  0  0
    3.5791   -1.1233    0.0000 N   0  0  0  0  0  0  0  0  0  0  0  0
    5.0603   -1.3600    0.0000 C   0  0  0  0  0  0  0  0  0  0  0  0
    5.5959   -2.7611    0.0000 C   0  0  0  0  0  0  0  0  0  0  0  0
    7.0771   -2.9978    0.0000 C   0  0  0  0  0  0  0  0  0  0  0  0
    8.0227   -1.8333    0.0000 C   0  0  0  0  0  0  0  0  0  0  0  0
    9.5039   -2.0700    0.0000 F   0  0  0  0  0  0  0  0  0  0  0  0
    7.4871   -0.4322    0.0000 C   0  0  0  0  0  0  0  0  0  0  0  0
    8.4326    0.7322    0.0000 Cl  0  0  0  0  0  0  0  0  0  0  0  0
    6.0058   -0.1956    0.0000 C   0  0  0  0  0  0  0  0  0  0  0  0
    3.9890    1.4422    0.0000 N   0  0  0  0  0  0  0  0  0  0  0  0
    3.4533    2.8433    0.0000 C   0  0  0  0  0  0  0  0  0  0  0  0
    1.9721    3.0800    0.0000 N   0  0  0  0  0  0  0  0  0  0  0  0
    1.0265    1.9155    0.0000 C   0  0  0  0  0  0  0  0  0  0  0  0
   -0.4547    2.1522    0.0000 C   0  0  0  0  0  0  0  0  0  0  0  0
   -1.4002    0.9878    0.0000 C   0  0  0  0  0  0  0  0  0  0  0  0
   -2.8814    1.2244    0.0000 O   0  0  0  0  0  0  0  0  0  0  0  0
   -3.4171    2.6255    0.0000 C   0  0  0  0  0  0  0  0  0  0  0  0
   -4.8654    3.0157    0.0000 C   0  0  0  0  0  0  0  0  0  0  0  0
   -4.9419    4.5138    0.0000 C   0  0  0  0  0  0  0  0  0  0  0  0
   -3.5408    5.0494    0.0000 O   0  0  0  0  0  0  0  0  0  0  0  0
   -2.5984    3.8824    0.0000 C   0  0  0  0  0  0  0  0  0  0  0  0
  1  2  1  0
  2  3  1  0
  2  4  1  0
  4  5  1  0
  5  6  1  0
  6  7  1  0
  7  8  2  0
  7  9  1  0
  9 10  1  0
 10 11  2  0
 11 12  1  0
 12 13  2  0
 13 14  1  0
 14 15  1  0
 15 16  1  0
 16 17  2  0
 17 18  1  0
 18 19  1  0
 18 20  2  0
 20 21  1  0
 20 22  1  0
 13 23  1  0
 23 24  2  0
 24 25  1  0
 25 26  2  0
 26 27  1  0
 27 28  2  0
 28 29  1  0
 30 29  1  1
 30 31  1  0
 31 32  1  0
 32 33  1  0
 33 34  1  0
 28 10  1  0
 26 12  1  0
 22 15  2  0
 34 30  1  0
M  END
>  <ChEMBL_ID>  (143) 
CHEMBL3092306

>  <SMILES>  (143) 
CN(C)CCNC(=O)Nc1cc2c(Nc3ccc(F)c(Cl)c3)ncnc2cc1O[C@H]1CCOC1

>  <MPO_Hit_Score>  (143) 
0.42149999999999999

>  <Tanimoto_to_Gefitinib>  (143) 
0.44569999999999999

>  <MolecularWeight>  (143) 
488.94999999999999

>  <LogP>  (143) 
4.0199999999999996

>  <TPSA>  (143) 
100.64

$$$$
CHEMBL1202473
     RDKit          2D

 31 34  0  0  0  0  0  0  0  0999 V2000
    3.1084    3.0855    0.0000 C   0  0  0  0  0  0  0  0  0  0  0  0
    1.6272    2.8487    0.0000 O   0  0  0  0  0  0  0  0  0  0  0  0
    1.0917    1.4476    0.0000 C   0  0  0  0  0  0  0  0  0  0  0  0
   -0.3895    1.2108    0.0000 C   0  0  0  0  0  0  0  0  0  0  0  0
   -0.9251   -0.1903    0.0000 C   0  0  0  0  0  0  0  0  0  0  0  0
   -2.4063   -0.4271    0.0000 C   0  0  0  0  0  0  0  0  0  0  0  0
   -3.3519    0.7373    0.0000 N   0  0  0  0  0  0  0  0  0  0  0  0
   -4.8331    0.5006    0.0000 C   0  0  0  0  0  0  0  0  0  0  0  0
   -5.7788    1.6649    0.0000 C   0  0  0  0  0  0  0  0  0  0  0  0
   -7.2600    1.4282    0.0000 C   0  0  0  0  0  0  0  0  0  0  0  0
   -8.2056    2.5926    0.0000 O   0  0  0  0  0  0  0  0  0  0  0  0
   -7.7955    0.0271    0.0000 C   0  0  0  0  0  0  0  0  0  0  0  0
   -9.2767   -0.2097    0.0000 C   0  0  0  0  0  0  0  0  0  0  0  0
   -6.8499   -1.1373    0.0000 C   0  0  0  0  0  0  0  0  0  0  0  0
   -5.3687   -0.9006    0.0000 C   0  0  0  0  0  0  0  0  0  0  0  0
   -4.4231   -2.0649    0.0000 F   0  0  0  0  0  0  0  0  0  0  0  0
   -2.9419   -1.8282    0.0000 N   0  0  0  0  0  0  0  0  0  0  0  0
   -1.9962   -2.9926    0.0000 C   0  0  0  0  0  0  0  0  0  0  0  0
   -0.5150   -2.7558    0.0000 N   0  0  0  0  0  0  0  0  0  0  0  0
    0.0205   -1.3547    0.0000 C   0  0  0  0  0  0  0  0  0  0  0  0
    1.5017   -1.1179    0.0000 C   0  0  0  0  0  0  0  0  0  0  0  0
    2.0373    0.2832    0.0000 C   0  0  0  0  0  0  0  0  0  0  0  0
    3.5185    0.5200    0.0000 O   0  0  0  0  0  0  0  0  0  0  0  0
    4.4641   -0.6444    0.0000 C   0  0  0  0  0  0  0  0  0  0  0  0
    5.9453   -0.4077    0.0000 C   0  0  0  0  0  0  0  0  0  0  0  0
    6.8910   -1.5720    0.0000 C   0  0  0  0  0  0  0  0  0  0  0  0
    8.3722   -1.3353    0.0000 C   0  0  0  0  0  0  0  0  0  0  0  0
    8.9077    0.0658    0.0000 N   0  0  0  0  0  0  0  0  0  0  0  0
   10.3889    0.3026    0.0000 C   0  0  0  0  0  0  0  0  0  0  0  0
    7.9621    1.2302    0.0000 C   0  0  0  0  0  0  0  0  0  0  0  0
    6.4809    0.9935    0.0000 C   0  0  0  0  0  0  0  0  0  0  0  0
  1  2  1  0
  2  3  1  0
  3  4  2  0
  4  5  1  0
  5  6  2  0
  6  7  1  0
  7  8  1  0
  8  9  1  0
  9 10  2  0
 10 11  1  0
 10 12  1  0
 12 13  1  0
 12 14  2  0
 14 15  1  0
 15 16  1  0
  6 17  1  0
 17 18  2  0
 18 19  1  0
 19 20  2  0
 20 21  1  0
 21 22  2  0
 22 23  1  0
 23 24  1  0
 24 25  1  0
 25 26  1  0
 26 27  1  0
 27 28  1  0
 28 29  1  0
 28 30  1  0
 30 31  1  0
 22  3  1  0
 20  5  1  0
 15  8  2  0
 31 25  1  0
M  END
>  <ChEMBL_ID>  (144) 
CHEMBL1202473

>  <SMILES>  (144) 
COc1cc2c(Nc3cc(O)c(C)cc3F)ncnc2cc1OCC1CCN(C)CC1

>  <MPO_Hit_Score>  (144) 
0.4214

>  <Tanimoto_to_Gefitinib>  (144) 
0.41670000000000001

>  <MolecularWeight>  (144) 
426.49000000000001

>  <LogP>  (144) 
4.2599999999999998

>  <TPSA>  (144) 
79.739999999999995

$$$$
CHEMBL327307
     RDKit          2D

 23 25  0  0  0  0  0  0  0  0999 V2000
   -6.4474    1.3328    0.0000 C   0  0  0  0  0  0  0  0  0  0  0  0
   -5.8436   -0.0403    0.0000 O   0  0  0  0  0  0  0  0  0  0  0  0
   -4.3526   -0.2040    0.0000 C   0  0  0  0  0  0  0  0  0  0  0  0
   -3.7488   -1.5771    0.0000 C   0  0  0  0  0  0  0  0  0  0  0  0
   -2.2578   -1.7408    0.0000 C   0  0  0  0  0  0  0  0  0  0  0  0
   -1.6540   -3.1139    0.0000 N   0  0  0  0  0  0  0  0  0  0  0  0
   -0.1630   -3.2776    0.0000 C   0  0  0  0  0  0  0  0  0  0  0  0
    0.7243   -2.0682    0.0000 N   0  0  0  0  0  0  0  0  0  0  0  0
    0.1205   -0.6951    0.0000 C   0  0  0  0  0  0  0  0  0  0  0  0
    1.0078    0.5144    0.0000 N   0  0  0  0  0  0  0  0  0  0  0  0
    2.4988    0.3507    0.0000 C   0  0  0  0  0  0  0  0  0  0  0  0
    3.1026   -1.0225    0.0000 C   0  0  0  0  0  0  0  0  0  0  0  0
    4.5936   -1.1861    0.0000 C   0  0  0  0  0  0  0  0  0  0  0  0
    5.4809    0.0233    0.0000 C   0  0  0  0  0  0  0  0  0  0  0  0
    6.9720   -0.1404    0.0000 Br  0  0  0  0  0  0  0  0  0  0  0  0
    4.8772    1.3964    0.0000 C   0  0  0  0  0  0  0  0  0  0  0  0
    5.7645    2.6058    0.0000 Br  0  0  0  0  0  0  0  0  0  0  0  0
    3.3861    1.5601    0.0000 C   0  0  0  0  0  0  0  0  0  0  0  0
   -1.3705   -0.5314    0.0000 C   0  0  0  0  0  0  0  0  0  0  0  0
   -1.9743    0.8418    0.0000 C   0  0  0  0  0  0  0  0  0  0  0  0
   -3.4653    1.0055    0.0000 C   0  0  0  0  0  0  0  0  0  0  0  0
   -4.0691    2.3786    0.0000 O   0  0  0  0  0  0  0  0  0  0  0  0
   -3.1818    3.5880    0.0000 C   0  0  0  0  0  0  0  0  0  0  0  0
  1  2  1  0
  2  3  1  0
  3  4  2  0
  4  5  1  0
  5  6  2  0
  6  7  1  0
  7  8  2  0
  8  9  1  0
  9 10  1  0
 10 11  1  0
 11 12  1  0
 12 13  2  0
 13 14  1  0
 14 15  1  0
 14 16  2  0
 16 17  1  0
 16 18  1  0
  9 19  2  0
 19 20  1  0
 20 21  2  0
 21 22  1  0
 22 23  1  0
 21  3  1  0
 19  5  1  0
 18 11  2  0
M  END
>  <ChEMBL_ID>  (145) 
CHEMBL327307

>  <SMILES>  (145) 
COc1cc2ncnc(Nc3ccc(Br)c(Br)c3)c2cc1OC

>  <MPO_Hit_Score>  (145) 
0.4209

>  <Tanimoto_to_Gefitinib>  (145) 
0.4627

>  <MolecularWeight>  (145) 
439.11000000000001

>  <LogP>  (145) 
4.9199999999999999

>  <TPSA>  (145) 
56.270000000000003

$$$$
CHEMBL214798
     RDKit          2D

 29 32  0  0  0  0  0  0  0  0999 V2000
   -5.7582   -1.3788    0.0000 C   0  0  0  0  0  0  0  0  0  0  0  0
   -4.8294   -2.5566    0.0000 O   0  0  0  0  0  0  0  0  0  0  0  0
   -3.3450   -2.3412    0.0000 C   0  0  0  0  0  0  0  0  0  0  0  0
   -2.4162   -3.5191    0.0000 C   0  0  0  0  0  0  0  0  0  0  0  0
   -0.9318   -3.3037    0.0000 C   0  0  0  0  0  0  0  0  0  0  0  0
   -0.0030   -4.4815    0.0000 N   0  0  0  0  0  0  0  0  0  0  0  0
    1.4815   -4.2661    0.0000 C   0  0  0  0  0  0  0  0  0  0  0  0
    2.0371   -2.8728    0.0000 N   0  0  0  0  0  0  0  0  0  0  0  0
    1.1084   -1.6950    0.0000 C   0  0  0  0  0  0  0  0  0  0  0  0
    1.6640   -0.3017    0.0000 N   0  0  0  0  0  0  0  0  0  0  0  0
    3.1485   -0.0863    0.0000 C   0  0  0  0  0  0  0  0  0  0  0  0
    4.0773   -1.2641    0.0000 C   0  0  0  0  0  0  0  0  0  0  0  0
    5.5617   -1.0487    0.0000 C   0  0  0  0  0  0  0  0  0  0  0  0
    6.1174    0.3446    0.0000 C   0  0  0  0  0  0  0  0  0  0  0  0
    5.1886    1.5224    0.0000 C   0  0  0  0  0  0  0  0  0  0  0  0
    5.7443    2.9157    0.0000 Cl  0  0  0  0  0  0  0  0  0  0  0  0
    3.7041    1.3070    0.0000 C   0  0  0  0  0  0  0  0  0  0  0  0
    2.7754    2.4849    0.0000 F   0  0  0  0  0  0  0  0  0  0  0  0
   -0.3761   -1.9104    0.0000 C   0  0  0  0  0  0  0  0  0  0  0  0
   -1.3049   -0.7325    0.0000 C   0  0  0  0  0  0  0  0  0  0  0  0
   -2.7893   -0.9479    0.0000 C   0  0  0  0  0  0  0  0  0  0  0  0
   -3.7181    0.2299    0.0000 O   0  0  0  0  0  0  0  0  0  0  0  0
   -3.1624    1.6232    0.0000 C   0  0  0  0  0  0  0  0  0  0  0  0
   -1.6780    1.8386    0.0000 C   0  0  0  0  0  0  0  0  0  0  0  0
   -1.1223    3.2319    0.0000 C   0  0  0  0  0  0  0  0  0  0  0  0
   -2.0511    4.4098    0.0000 N   0  0  0  0  0  0  0  0  0  0  0  0
   -1.4954    5.8030    0.0000 C   0  0  0  0  0  0  0  0  0  0  0  0
   -3.5356    4.1943    0.0000 C   0  0  0  0  0  0  0  0  0  0  0  0
   -4.0912    2.8011    0.0000 C   0  0  0  0  0  0  0  0  0  0  0  0
  1  2  1  0
  2  3  1  0
  3  4  2  0
  4  5  1  0
  5  6  2  0
  6  7  1  0
  7  8  2  0
  8  9  1  0
  9 10  1  0
 10 11  1  0
 11 12  2  0
 12 13  1  0
 13 14  2  0
 14 15  1  0
 15 16  1  0
 15 17  2  0
 17 18  1  0
  9 19  2  0
 19 20  1  0
 20 21  2  0
 21 22  1  0
 22 23  1  0
 23 24  1  0
 24 25  1  0
 25 26  1  0
 26 27  1  0
 26 28  1  0
 28 29  1  0
 21  3  1  0
 19  5  1  0
 17 11  1  0
 29 23  1  0
M  END
>  <ChEMBL_ID>  (146) 
CHEMBL214798

>  <SMILES>  (146) 
COc1cc2ncnc(Nc3cccc(Cl)c3F)c2cc1OC1CCN(C)CC1

>  <MPO_Hit_Score>  (146) 
0.42030000000000001

>  <Tanimoto_to_Gefitinib>  (146) 
0.46250000000000002

>  <MolecularWeight>  (146) 
416.88

>  <LogP>  (146) 
4.6500000000000004

>  <TPSA>  (146) 
59.509999999999998

$$$$
CHEMBL203295
     RDKit          2D

 29 32  0  0  0  0  0  0  0  0999 V2000
   -4.8903    4.5190    0.0000 C   0  0  0  0  0  0  0  0  0  0  0  0
   -4.5807    3.0513    0.0000 O   0  0  0  0  0  0  0  0  0  0  0  0
   -3.1548    2.5856    0.0000 C   0  0  0  0  0  0  0  0  0  0  0  0
   -2.8453    1.1179    0.0000 C   0  0  0  0  0  0  0  0  0  0  0  0
   -1.4194    0.6521    0.0000 C   0  0  0  0  0  0  0  0  0  0  0  0
   -1.1098   -0.8156    0.0000 O   0  0  0  0  0  0  0  0  0  0  0  0
   -2.2261   -1.8175    0.0000 C   0  0  0  0  0  0  0  0  0  0  0  0
   -3.6520   -1.3518    0.0000 C   0  0  0  0  0  0  0  0  0  0  0  0
   -4.7682   -2.3538    0.0000 C   0  0  0  0  0  0  0  0  0  0  0  0
   -4.4586   -3.8215    0.0000 N   0  0  0  0  0  0  0  0  0  0  0  0
   -5.5749   -4.8234    0.0000 C   0  0  0  0  0  0  0  0  0  0  0  0
   -3.0328   -4.2872    0.0000 C   0  0  0  0  0  0  0  0  0  0  0  0
   -1.9165   -3.2852    0.0000 C   0  0  0  0  0  0  0  0  0  0  0  0
   -0.3031    1.6541    0.0000 C   0  0  0  0  0  0  0  0  0  0  0  0
    1.1227    1.1883    0.0000 C   0  0  0  0  0  0  0  0  0  0  0  0
    1.4323   -0.2794    0.0000 N   0  0  0  0  0  0  0  0  0  0  0  0
    2.8582   -0.7451    0.0000 C   0  0  0  0  0  0  0  0  0  0  0  0
    3.1678   -2.2128    0.0000 C   0  0  0  0  0  0  0  0  0  0  0  0
    4.5936   -2.6786    0.0000 C   0  0  0  0  0  0  0  0  0  0  0  0
    5.7099   -1.6766    0.0000 C   0  0  0  0  0  0  0  0  0  0  0  0
    7.1358   -2.1423    0.0000 F   0  0  0  0  0  0  0  0  0  0  0  0
    5.4003   -0.2089    0.0000 C   0  0  0  0  0  0  0  0  0  0  0  0
    6.5166    0.7931    0.0000 Cl  0  0  0  0  0  0  0  0  0  0  0  0
    3.9745    0.2568    0.0000 C   0  0  0  0  0  0  0  0  0  0  0  0
    2.2390    2.1903    0.0000 N   0  0  0  0  0  0  0  0  0  0  0  0
    1.9294    3.6580    0.0000 C   0  0  0  0  0  0  0  0  0  0  0  0
    0.5036    4.1238    0.0000 N   0  0  0  0  0  0  0  0  0  0  0  0
   -0.6127    3.1218    0.0000 C   0  0  0  0  0  0  0  0  0  0  0  0
   -2.0386    3.5875    0.0000 C   0  0  0  0  0  0  0  0  0  0  0  0
  1  2  1  0
  2  3  1  0
  3  4  1  0
  4  5  2  0
  5  6  1  0
  6  7  1  0
  7  8  1  0
  8  9  1  0
  9 10  1  0
 10 11  1  0
 10 12  1  0
 12 13  1  0
  5 14  1  0
 14 15  2  0
 15 16  1  0
 16 17  1  0
 17 18  1  0
 18 19  2  0
 19 20  1  0
 20 21  1  0
 20 22  2  0
 22 23  1  0
 22 24  1  0
 15 25  1  0
 25 26  2  0
 26 27  1  0
 27 28  2  0
 28 29  1  0
 29  3  2  0
 13  7  1  0
 28 14  1  0
 24 17  2  0
M  END
>  <ChEMBL_ID>  (147) 
CHEMBL203295

>  <SMILES>  (147) 
COc1cc(OC2CCN(C)CC2)c2c(Nc3ccc(F)c(Cl)c3)ncnc2c1

>  <MPO_Hit_Score>  (147) 
0.42030000000000001

>  <Tanimoto_to_Gefitinib>  (147) 
0.46250000000000002

>  <MolecularWeight>  (147) 
416.88

>  <LogP>  (147) 
4.6500000000000004

>  <TPSA>  (147) 
59.509999999999998

$$$$
CHEMBL1204261
     RDKit          2D

 24 26  0  0  0  0  0  0  0  0999 V2000
   -7.2405    0.5709    0.0000 C   0  0  0  0  0  0  0  0  0  0  0  0
   -5.7407    0.5423    0.0000 C   0  0  0  0  0  0  0  0  0  0  0  0
   -5.0156   -0.7708    0.0000 O   0  0  0  0  0  0  0  0  0  0  0  0
   -3.5158   -0.7993    0.0000 C   0  0  0  0  0  0  0  0  0  0  0  0
   -2.7907   -2.1124    0.0000 C   0  0  0  0  0  0  0  0  0  0  0  0
   -1.2910   -2.1409    0.0000 C   0  0  0  0  0  0  0  0  0  0  0  0
   -0.5658   -3.4540    0.0000 N   0  0  0  0  0  0  0  0  0  0  0  0
    0.9339   -3.4825    0.0000 C   0  0  0  0  0  0  0  0  0  0  0  0
    1.7085   -2.1980    0.0000 N   0  0  0  0  0  0  0  0  0  0  0  0
    0.9833   -0.8849    0.0000 C   0  0  0  0  0  0  0  0  0  0  0  0
    1.7579    0.3996    0.0000 N   0  0  0  0  0  0  0  0  0  0  0  0
    3.2576    0.3711    0.0000 C   0  0  0  0  0  0  0  0  0  0  0  0
    3.9828   -0.9420    0.0000 C   0  0  0  0  0  0  0  0  0  0  0  0
    5.4825   -0.9705    0.0000 C   0  0  0  0  0  0  0  0  0  0  0  0
    6.2571    0.3140    0.0000 C   0  0  0  0  0  0  0  0  0  0  0  0
    5.5320    1.6271    0.0000 C   0  0  0  0  0  0  0  0  0  0  0  0
    6.3065    2.9116    0.0000 F   0  0  0  0  0  0  0  0  0  0  0  0
    4.0322    1.6556    0.0000 C   0  0  0  0  0  0  0  0  0  0  0  0
   -0.5164   -0.8564    0.0000 C   0  0  0  0  0  0  0  0  0  0  0  0
   -1.2415    0.4567    0.0000 C   0  0  0  0  0  0  0  0  0  0  0  0
   -2.7413    0.4852    0.0000 C   0  0  0  0  0  0  0  0  0  0  0  0
   -3.4664    1.7983    0.0000 O   0  0  0  0  0  0  0  0  0  0  0  0
   -2.6918    3.0829    0.0000 C   0  0  0  0  0  0  0  0  0  0  0  0
   -3.4170    4.3959    0.0000 C   0  0  0  0  0  0  0  0  0  0  0  0
  1  2  1  0
  2  3  1  0
  3  4  1  0
  4  5  2  0
  5  6  1  0
  6  7  2  0
  7  8  1  0
  8  9  2  0
  9 10  1  0
 10 11  1  0
 11 12  1  0
 12 13  2  0
 13 14  1  0
 14 15  2  0
 15 16  1  0
 16 17  1  0
 16 18  2  0
 10 19  2  0
 19 20  1  0
 20 21  2  0
 21 22  1  0
 22 23  1  0
 23 24  1  0
 21  4  1  0
 19  6  1  0
 18 12  1  0
M  END
>  <ChEMBL_ID>  (148) 
CHEMBL1204261

>  <SMILES>  (148) 
CCOc1cc2ncnc(Nc3cccc(F)c3)c2cc1OCC

>  <MPO_Hit_Score>  (148) 
0.41720000000000002

>  <Tanimoto_to_Gefitinib>  (148) 
0.42249999999999999

>  <MolecularWeight>  (148) 
327.36000000000001

>  <LogP>  (148) 
4.3099999999999996

>  <TPSA>  (148) 
56.270000000000003

$$$$
CHEMBL3221554
     RDKit          2D

 28 30  0  0  0  0  0  0  0  0999 V2000
   -6.8288    3.7919    0.0000 C   0  0  0  0  0  0  0  0  0  0  0  0
   -7.2055    2.3400    0.0000 C   0  0  0  0  0  0  0  0  0  0  0  0
   -6.1365    1.2878    0.0000 O   0  0  0  0  0  0  0  0  0  0  0  0
   -6.5132   -0.1642    0.0000 C   0  0  0  0  0  0  0  0  0  0  0  0
   -7.9590   -0.5639    0.0000 O   0  0  0  0  0  0  0  0  0  0  0  0
   -5.4441   -1.2164    0.0000 N   0  0  0  0  0  0  0  0  0  0  0  0
   -3.9984   -0.8167    0.0000 C   0  0  0  0  0  0  0  0  0  0  0  0
   -3.6217    0.6353    0.0000 C   0  0  0  0  0  0  0  0  0  0  0  0
   -2.1759    1.0350    0.0000 C   0  0  0  0  0  0  0  0  0  0  0  0
   -1.1069   -0.0172    0.0000 C   0  0  0  0  0  0  0  0  0  0  0  0
    0.3389    0.3825    0.0000 N   0  0  0  0  0  0  0  0  0  0  0  0
    1.4079   -0.6697    0.0000 C   0  0  0  0  0  0  0  0  0  0  0  0
    1.0312   -2.1216    0.0000 N   0  0  0  0  0  0  0  0  0  0  0  0
    2.1003   -3.1738    0.0000 C   0  0  0  0  0  0  0  0  0  0  0  0
    3.5460   -2.7741    0.0000 N   0  0  0  0  0  0  0  0  0  0  0  0
    3.9228   -1.3222    0.0000 C   0  0  0  0  0  0  0  0  0  0  0  0
    5.3685   -0.9225    0.0000 C   0  0  0  0  0  0  0  0  0  0  0  0
    5.7452    0.5295    0.0000 C   0  0  0  0  0  0  0  0  0  0  0  0
    7.1910    0.9292    0.0000 O   0  0  0  0  0  0  0  0  0  0  0  0
    8.2600   -0.1230    0.0000 C   0  0  0  0  0  0  0  0  0  0  0  0
    4.6762    1.5817    0.0000 C   0  0  0  0  0  0  0  0  0  0  0  0
    5.0529    3.0336    0.0000 O   0  0  0  0  0  0  0  0  0  0  0  0
    3.9838    4.0858    0.0000 C   0  0  0  0  0  0  0  0  0  0  0  0
    3.2304    1.1819    0.0000 C   0  0  0  0  0  0  0  0  0  0  0  0
    2.8537   -0.2700    0.0000 C   0  0  0  0  0  0  0  0  0  0  0  0
   -1.4836   -1.4691    0.0000 C   0  0  0  0  0  0  0  0  0  0  0  0
   -2.9293   -1.8689    0.0000 C   0  0  0  0  0  0  0  0  0  0  0  0
   -3.3061   -3.3208    0.0000 C   0  0  0  0  0  0  0  0  0  0  0  0
  1  2  1  0
  2  3  1  0
  3  4  1  0
  4  5  2  0
  4  6  1  0
  6  7  1  0
  7  8  1  0
  8  9  2  0
  9 10  1  0
 10 11  1  0
 11 12  1  0
 12 13  1  0
 13 14  2  0
 14 15  1  0
 15 16  2  0
 16 17  1  0
 17 18  2  0
 18 19  1  0
 19 20  1  0
 18 21  1  0
 21 22  1  0
 22 23  1  0
 21 24  2  0
 24 25  1  0
 10 26  2  0
 26 27  1  0
 27 28  1  0
 27  7  2  0
 25 12  2  0
 25 16  1  0
M  END
>  <ChEMBL_ID>  (149) 
CHEMBL3221554

>  <SMILES>  (149) 
CCOC(=O)Nc1ccc(Nc2ncnc3cc(OC)c(OC)cc23)cc1C

>  <MPO_Hit_Score>  (149) 
0.4168

>  <Tanimoto_to_Gefitinib>  (149) 
0.4103

>  <MolecularWeight>  (149) 
382.42000000000002

>  <LogP>  (149) 
4.2699999999999996

>  <TPSA>  (149) 
94.599999999999994

$$$$
CHEMBL2018762
     RDKit          2D

 28 30  0  0  0  0  0  0  0  0999 V2000
   -2.3893    4.3653    0.0000 C   0  0  0  0  0  0  0  0  0  0  0  0
   -3.7523    3.7389    0.0000 C   0  0  0  0  0  0  0  0  0  0  0  0
   -3.8913    2.2454    0.0000 O   0  0  0  0  0  0  0  0  0  0  0  0
   -5.2543    1.6190    0.0000 C   0  0  0  0  0  0  0  0  0  0  0  0
   -6.4782    2.4862    0.0000 O   0  0  0  0  0  0  0  0  0  0  0  0
   -5.3933    0.1255    0.0000 N   0  0  0  0  0  0  0  0  0  0  0  0
   -4.1694   -0.7417    0.0000 C   0  0  0  0  0  0  0  0  0  0  0  0
   -2.8064   -0.1153    0.0000 C   0  0  0  0  0  0  0  0  0  0  0  0
   -1.5825   -0.9825    0.0000 C   0  0  0  0  0  0  0  0  0  0  0  0
   -0.2195   -0.3562    0.0000 N   0  0  0  0  0  0  0  0  0  0  0  0
    1.0044   -1.2234    0.0000 C   0  0  0  0  0  0  0  0  0  0  0  0
    0.8653   -2.7169    0.0000 N   0  0  0  0  0  0  0  0  0  0  0  0
    2.0893   -3.5841    0.0000 C   0  0  0  0  0  0  0  0  0  0  0  0
    3.4522   -2.9578    0.0000 N   0  0  0  0  0  0  0  0  0  0  0  0
    3.5913   -1.4642    0.0000 C   0  0  0  0  0  0  0  0  0  0  0  0
    4.9542   -0.8379    0.0000 C   0  0  0  0  0  0  0  0  0  0  0  0
    5.0933    0.6557    0.0000 C   0  0  0  0  0  0  0  0  0  0  0  0
    6.4563    1.2820    0.0000 O   0  0  0  0  0  0  0  0  0  0  0  0
    7.6802    0.4148    0.0000 C   0  0  0  0  0  0  0  0  0  0  0  0
    3.8694    1.5229    0.0000 C   0  0  0  0  0  0  0  0  0  0  0  0
    4.0084    3.0164    0.0000 O   0  0  0  0  0  0  0  0  0  0  0  0
    2.7845    3.8836    0.0000 C   0  0  0  0  0  0  0  0  0  0  0  0
    2.5064    0.8965    0.0000 C   0  0  0  0  0  0  0  0  0  0  0  0
    2.3673   -0.5970    0.0000 C   0  0  0  0  0  0  0  0  0  0  0  0
   -1.7216   -2.4761    0.0000 C   0  0  0  0  0  0  0  0  0  0  0  0
   -3.0845   -3.1024    0.0000 C   0  0  0  0  0  0  0  0  0  0  0  0
   -4.3084   -2.2352    0.0000 C   0  0  0  0  0  0  0  0  0  0  0  0
   -5.6714   -2.8616    0.0000 C   0  0  0  0  0  0  0  0  0  0  0  0
  1  2  1  0
  2  3  1  0
  3  4  1  0
  4  5  2  0
  4  6  1  0
  6  7  1  0
  7  8  1  0
  8  9  2  0
  9 10  1  0
 10 11  1  0
 11 12  1  0
 12 13  2  0
 13 14  1  0
 14 15  2  0
 15 16  1  0
 16 17  2  0
 17 18  1  0
 18 19  1  0
 17 20  1  0
 20 21  1  0
 21 22  1  0
 20 23  2  0
 23 24  1  0
  9 25  1  0
 25 26  2  0
 26 27  1  0
 27 28  1  0
 27  7  2  0
 24 11  2  0
 24 15  1  0
M  END
>  <ChEMBL_ID>  (150) 
CHEMBL2018762

>  <SMILES>  (150) 
CCOC(=O)Nc1cc(Nc2ncnc3cc(OC)c(OC)cc23)ccc1C

>  <MPO_Hit_Score>  (150) 
0.4168

>  <Tanimoto_to_Gefitinib>  (150) 
0.4103

>  <MolecularWeight>  (150) 
382.42000000000002

>  <LogP>  (150) 
4.2699999999999996

>  <TPSA>  (150) 
94.599999999999994

$$$$
CHEMBL2018756
     RDKit          2D

 28 30  0  0  0  0  0  0  0  0999 V2000
   -6.8288    3.7919    0.0000 C   0  0  0  0  0  0  0  0  0  0  0  0
   -7.2055    2.3400    0.0000 C   0  0  0  0  0  0  0  0  0  0  0  0
   -6.1365    1.2878    0.0000 O   0  0  0  0  0  0  0  0  0  0  0  0
   -6.5132   -0.1642    0.0000 C   0  0  0  0  0  0  0  0  0  0  0  0
   -7.9590   -0.5639    0.0000 O   0  0  0  0  0  0  0  0  0  0  0  0
   -5.4441   -1.2164    0.0000 N   0  0  0  0  0  0  0  0  0  0  0  0
   -3.9984   -0.8167    0.0000 C   0  0  0  0  0  0  0  0  0  0  0  0
   -3.6217    0.6353    0.0000 C   0  0  0  0  0  0  0  0  0  0  0  0
   -2.1759    1.0350    0.0000 C   0  0  0  0  0  0  0  0  0  0  0  0
   -1.1069   -0.0172    0.0000 C   0  0  0  0  0  0  0  0  0  0  0  0
    0.3389    0.3825    0.0000 N   0  0  0  0  0  0  0  0  0  0  0  0
    1.4079   -0.6697    0.0000 C   0  0  0  0  0  0  0  0  0  0  0  0
    1.0312   -2.1216    0.0000 N   0  0  0  0  0  0  0  0  0  0  0  0
    2.1003   -3.1738    0.0000 C   0  0  0  0  0  0  0  0  0  0  0  0
    3.5460   -2.7741    0.0000 N   0  0  0  0  0  0  0  0  0  0  0  0
    3.9228   -1.3222    0.0000 C   0  0  0  0  0  0  0  0  0  0  0  0
    5.3685   -0.9225    0.0000 C   0  0  0  0  0  0  0  0  0  0  0  0
    5.7452    0.5295    0.0000 C   0  0  0  0  0  0  0  0  0  0  0  0
    7.1910    0.9292    0.0000 O   0  0  0  0  0  0  0  0  0  0  0  0
    8.2600   -0.1230    0.0000 C   0  0  0  0  0  0  0  0  0  0  0  0
    4.6762    1.5817    0.0000 C   0  0  0  0  0  0  0  0  0  0  0  0
    5.0529    3.0336    0.0000 O   0  0  0  0  0  0  0  0  0  0  0  0
    3.9838    4.0858    0.0000 C   0  0  0  0  0  0  0  0  0  0  0  0
    3.2304    1.1819    0.0000 C   0  0  0  0  0  0  0  0  0  0  0  0
    2.8537   -0.2700    0.0000 C   0  0  0  0  0  0  0  0  0  0  0  0
   -1.4836   -1.4691    0.0000 C   0  0  0  0  0  0  0  0  0  0  0  0
   -2.9293   -1.8689    0.0000 C   0  0  0  0  0  0  0  0  0  0  0  0
   -3.3061   -3.3208    0.0000 C   0  0  0  0  0  0  0  0  0  0  0  0
  1  2  1  0
  2  3  1  0
  3  4  1  0
  4  5  2  0
  4  6  1  0
  6  7  1  0
  7  8  1  0
  8  9  2  0
  9 10  1  0
 10 11  1  0
 11 12  1  0
 12 13  1  0
 13 14  2  0
 14 15  1  0
 15 16  2  0
 16 17  1  0
 17 18  2  0
 18 19  1  0
 19 20  1  0
 18 21  1  0
 21 22  1  0
 22 23  1  0
 21 24  2  0
 24 25  1  0
 10 26  2  0
 26 27  1  0
 27 28  1  0
 27  7  2  0
 25 12  2  0
 25 16  1  0
M  END
>  <ChEMBL_ID>  (151) 
CHEMBL2018756

>  <SMILES>  (151) 
CCOC(=O)Nc1ccc(Nc2ncnc3cc(OC)c(OC)cc23)cc1C

>  <MPO_Hit_Score>  (151) 
0.4168

>  <Tanimoto_to_Gefitinib>  (151) 
0.4103

>  <MolecularWeight>  (151) 
382.42000000000002

>  <LogP>  (151) 
4.2699999999999996

>  <TPSA>  (151) 
94.599999999999994

$$$$
CHEMBL3221555
     RDKit          2D

 28 30  0  0  0  0  0  0  0  0999 V2000
   -2.3893    4.3653    0.0000 C   0  0  0  0  0  0  0  0  0  0  0  0
   -3.7523    3.7389    0.0000 C   0  0  0  0  0  0  0  0  0  0  0  0
   -3.8913    2.2454    0.0000 O   0  0  0  0  0  0  0  0  0  0  0  0
   -5.2543    1.6190    0.0000 C   0  0  0  0  0  0  0  0  0  0  0  0
   -6.4782    2.4862    0.0000 O   0  0  0  0  0  0  0  0  0  0  0  0
   -5.3933    0.1255    0.0000 N   0  0  0  0  0  0  0  0  0  0  0  0
   -4.1694   -0.7417    0.0000 C   0  0  0  0  0  0  0  0  0  0  0  0
   -2.8064   -0.1153    0.0000 C   0  0  0  0  0  0  0  0  0  0  0  0
   -1.5825   -0.9825    0.0000 C   0  0  0  0  0  0  0  0  0  0  0  0
   -0.2195   -0.3562    0.0000 N   0  0  0  0  0  0  0  0  0  0  0  0
    1.0044   -1.2234    0.0000 C   0  0  0  0  0  0  0  0  0  0  0  0
    0.8653   -2.7169    0.0000 N   0  0  0  0  0  0  0  0  0  0  0  0
    2.0893   -3.5841    0.0000 C   0  0  0  0  0  0  0  0  0  0  0  0
    3.4522   -2.9578    0.0000 N   0  0  0  0  0  0  0  0  0  0  0  0
    3.5913   -1.4642    0.0000 C   0  0  0  0  0  0  0  0  0  0  0  0
    4.9542   -0.8379    0.0000 C   0  0  0  0  0  0  0  0  0  0  0  0
    5.0933    0.6557    0.0000 C   0  0  0  0  0  0  0  0  0  0  0  0
    6.4563    1.2820    0.0000 O   0  0  0  0  0  0  0  0  0  0  0  0
    7.6802    0.4148    0.0000 C   0  0  0  0  0  0  0  0  0  0  0  0
    3.8694    1.5229    0.0000 C   0  0  0  0  0  0  0  0  0  0  0  0
    4.0084    3.0164    0.0000 O   0  0  0  0  0  0  0  0  0  0  0  0
    2.7845    3.8836    0.0000 C   0  0  0  0  0  0  0  0  0  0  0  0
    2.5064    0.8965    0.0000 C   0  0  0  0  0  0  0  0  0  0  0  0
    2.3673   -0.5970    0.0000 C   0  0  0  0  0  0  0  0  0  0  0  0
   -1.7216   -2.4761    0.0000 C   0  0  0  0  0  0  0  0  0  0  0  0
   -3.0845   -3.1024    0.0000 C   0  0  0  0  0  0  0  0  0  0  0  0
   -4.3084   -2.2352    0.0000 C   0  0  0  0  0  0  0  0  0  0  0  0
   -5.6714   -2.8616    0.0000 C   0  0  0  0  0  0  0  0  0  0  0  0
  1  2  1  0
  2  3  1  0
  3  4  1  0
  4  5  2  0
  4  6  1  0
  6  7  1  0
  7  8  1  0
  8  9  2  0
  9 10  1  0
 10 11  1  0
 11 12  1  0
 12 13  2  0
 13 14  1  0
 14 15  2  0
 15 16  1  0
 16 17  2  0
 17 18  1  0
 18 19  1  0
 17 20  1  0
 20 21  1  0
 21 22  1  0
 20 23  2  0
 23 24  1  0
  9 25  1  0
 25 26  2  0
 26 27  1  0
 27 28  1  0
 27  7  2  0
 24 11  2  0
 24 15  1  0
M  END
>  <ChEMBL_ID>  (152) 
CHEMBL3221555

>  <SMILES>  (152) 
CCOC(=O)Nc1cc(Nc2ncnc3cc(OC)c(OC)cc23)ccc1C

>  <MPO_Hit_Score>  (152) 
0.4168

>  <Tanimoto_to_Gefitinib>  (152) 
0.4103

>  <MolecularWeight>  (152) 
382.42000000000002

>  <LogP>  (152) 
4.2699999999999996

>  <TPSA>  (152) 
94.599999999999994

$$$$
CHEMBL3806213
     RDKit          2D

 30 34  0  0  0  0  0  0  0  0999 V2000
    8.6746    0.0960    0.0000 F   0  0  0  0  0  0  0  0  0  0  0  0
    7.1875   -0.1002    0.0000 C   0  0  0  0  0  0  0  0  0  0  0  0
    6.6138   -1.4861    0.0000 C   0  0  0  0  0  0  0  0  0  0  0  0
    5.1267   -1.6823    0.0000 C   0  0  0  0  0  0  0  0  0  0  0  0
    4.2132   -0.4925    0.0000 C   0  0  0  0  0  0  0  0  0  0  0  0
    2.7261   -0.6886    0.0000 N   0  0  0  0  0  0  0  0  0  0  0  0
    1.8127    0.5012    0.0000 C   0  0  0  0  0  0  0  0  0  0  0  0
    2.3864    1.8871    0.0000 N   0  0  0  0  0  0  0  0  0  0  0  0
    1.4729    3.0769    0.0000 C   0  0  0  0  0  0  0  0  0  0  0  0
   -0.0142    2.8808    0.0000 N   0  0  0  0  0  0  0  0  0  0  0  0
   -0.5879    1.4948    0.0000 C   0  0  0  0  0  0  0  0  0  0  0  0
   -2.0750    1.2986    0.0000 C   0  0  0  0  0  0  0  0  0  0  0  0
   -2.6487   -0.0873    0.0000 C   0  0  0  0  0  0  0  0  0  0  0  0
   -4.1358   -0.2835    0.0000 O   0  0  0  0  0  0  0  0  0  0  0  0
   -5.0492    0.9063    0.0000 C   0  0  0  0  0  0  0  0  0  0  0  0
   -6.5363    0.7102    0.0000 C   0  0  0  0  0  0  0  0  0  0  0  0
   -7.2518   -0.6082    0.0000 C   0  0  0  0  0  0  0  0  0  0  0  0
   -8.7267   -0.3352    0.0000 C   0  0  0  0  0  0  0  0  0  0  0  0
   -8.9229    1.1519    0.0000 C   0  0  0  0  0  0  0  0  0  0  0  0
   -7.5691    1.7980    0.0000 O   0  0  0  0  0  0  0  0  0  0  0  0
   -1.7352   -1.2771    0.0000 C   0  0  0  0  0  0  0  0  0  0  0  0
   -2.3089   -2.6631    0.0000 O   0  0  0  0  0  0  0  0  0  0  0  0
   -1.3955   -3.8529    0.0000 C   0  0  0  0  0  0  0  0  0  0  0  0
    0.0916   -3.6567    0.0000 C   0  0  0  0  0  0  0  0  0  0  0  0
    0.6653   -2.2708    0.0000 O   0  0  0  0  0  0  0  0  0  0  0  0
   -0.2481   -1.0810    0.0000 C   0  0  0  0  0  0  0  0  0  0  0  0
    0.3256    0.3050    0.0000 C   0  0  0  0  0  0  0  0  0  0  0  0
    4.7869    0.8935    0.0000 C   0  0  0  0  0  0  0  0  0  0  0  0
    6.2740    1.0896    0.0000 C   0  0  0  0  0  0  0  0  0  0  0  0
    6.8477    2.4756    0.0000 Cl  0  0  0  0  0  0  0  0  0  0  0  0
  1  2  1  0
  2  3  1  0
  3  4  2  0
  4  5  1  0
  5  6  1  0
  6  7  1  0
  7  8  1  0
  8  9  2  0
  9 10  1  0
 10 11  2  0
 11 12  1  0
 12 13  2  0
 13 14  1  0
 14 15  1  0
 15 16  1  0
 16 17  1  0
 17 18  1  0
 18 19  1  0
 19 20  1  0
 13 21  1  0
 21 22  1  0
 22 23  1  0
 23 24  1  0
 24 25  1  0
 25 26  1  0
 26 27  1  0
  5 28  2  0
 28 29  1  0
 29 30  1  0
 29  2  2  0
 27  7  2  0
 27 11  1  0
 20 16  1  0
 26 21  2  0
M  END
>  <ChEMBL_ID>  (153) 
CHEMBL3806213

>  <SMILES>  (153) 
Fc1ccc(Nc2ncnc3cc(OCC4CCCO4)c4c(c23)OCCO4)cc1Cl

>  <MPO_Hit_Score>  (153) 
0.41570000000000001

>  <Tanimoto_to_Gefitinib>  (153) 
0.41670000000000001

>  <MolecularWeight>  (153) 
431.85000000000002

>  <LogP>  (153) 
4.4900000000000002

>  <TPSA>  (153) 
74.730000000000004

$$$$
CHEMBL3092300
     RDKit          2D

 38 43  0  0  0  0  0  0  0  0999 V2000
    9.4193   -3.4756    0.0000 F   0  0  0  0  0  0  0  0  0  0  0  0
    8.0267   -2.9182    0.0000 C   0  0  0  0  0  0  0  0  0  0  0  0
    6.8476   -3.8455    0.0000 C   0  0  0  0  0  0  0  0  0  0  0  0
    5.4551   -3.2881    0.0000 C   0  0  0  0  0  0  0  0  0  0  0  0
    5.2415   -1.8034    0.0000 C   0  0  0  0  0  0  0  0  0  0  0  0
    3.8489   -1.2460    0.0000 N   0  0  0  0  0  0  0  0  0  0  0  0
    3.6353    0.2387    0.0000 C   0  0  0  0  0  0  0  0  0  0  0  0
    4.8144    1.1660    0.0000 N   0  0  0  0  0  0  0  0  0  0  0  0
    4.6008    2.6507    0.0000 C   0  0  0  0  0  0  0  0  0  0  0  0
    3.2082    3.2081    0.0000 N   0  0  0  0  0  0  0  0  0  0  0  0
    2.0292    2.2808    0.0000 C   0  0  0  0  0  0  0  0  0  0  0  0
    0.6366    2.8382    0.0000 C   0  0  0  0  0  0  0  0  0  0  0  0
   -0.5424    1.9109    0.0000 C   0  0  0  0  0  0  0  0  0  0  0  0
   -1.9350    2.4683    0.0000 O   0  0  0  0  0  0  0  0  0  0  0  0
   -2.1486    3.9530    0.0000 C   0  0  0  0  0  0  0  0  0  0  0  0
   -3.4753    4.6530    0.0000 C   0  0  0  0  0  0  0  0  0  0  0  0
   -3.2196    6.1310    0.0000 C   0  0  0  0  0  0  0  0  0  0  0  0
   -1.7349    6.3446    0.0000 O   0  0  0  0  0  0  0  0  0  0  0  0
   -1.0729    4.9985    0.0000 C   0  0  0  0  0  0  0  0  0  0  0  0
   -0.3289    0.4262    0.0000 C   0  0  0  0  0  0  0  0  0  0  0  0
   -1.5079   -0.5011    0.0000 N   0  0  0  0  0  0  0  0  0  0  0  0
   -2.9005    0.0563    0.0000 C   0  0  0  0  0  0  0  0  0  0  0  0
   -3.1140    1.5410    0.0000 O   0  0  0  0  0  0  0  0  0  0  0  0
   -4.0795   -0.8710    0.0000 N   0  0  0  0  0  0  0  0  0  0  0  0
   -5.4721   -0.3136    0.0000 C   0  0  0  0  0  0  0  0  0  0  0  0
   -6.6511   -1.2409    0.0000 C   0  0  0  0  0  0  0  0  0  0  0  0
   -6.4375   -2.7256    0.0000 C   0  0  0  0  0  0  0  0  0  0  0  0
   -5.0449   -3.2830    0.0000 C   0  0  0  0  0  0  0  0  0  0  0  0
   -3.8659   -2.3557    0.0000 C   0  0  0  0  0  0  0  0  0  0  0  0
   -6.3803   -4.2246    0.0000 O   0  0  0  0  0  0  0  0  0  0  0  0
   -7.7882   -4.7421    0.0000 C   0  0  0  0  0  0  0  0  0  0  0  0
   -8.7155   -3.5631    0.0000 C   0  0  0  0  0  0  0  0  0  0  0  0
   -7.8808   -2.3169    0.0000 O   0  0  0  0  0  0  0  0  0  0  0  0
    1.0637   -0.1312    0.0000 C   0  0  0  0  0  0  0  0  0  0  0  0
    2.2428    0.7961    0.0000 C   0  0  0  0  0  0  0  0  0  0  0  0
    6.4205   -0.8761    0.0000 C   0  0  0  0  0  0  0  0  0  0  0  0
    7.8131   -1.4335    0.0000 C   0  0  0  0  0  0  0  0  0  0  0  0
    8.9921   -0.5062    0.0000 Cl  0  0  0  0  0  0  0  0  0  0  0  0
  1  2  1  0
  2  3  1  0
  3  4  2  0
  4  5  1  0
  5  6  1  0
  6  7  1  0
  7  8  1  0
  8  9  2  0
  9 10  1  0
 10 11  2  0
 11 12  1  0
 12 13  2  0
 13 14  1  0
 15 14  1  1
 15 16  1  0
 16 17  1  0
 17 18  1  0
 18 19  1  0
 13 20  1  0
 20 21  1  0
 21 22  1  0
 22 23  2  0
 22 24  1  0
 24 25  1  0
 25 26  1  0
 26 27  1  0
 27 28  1  0
 28 29  1  0
 27 30  1  0
 30 31  1  0
 31 32  1  0
 32 33  1  0
 20 34  2  0
 34 35  1  0
  5 36  2  0
 36 37  1  0
 37 38  1  0
 37  2  2  0
 35  7  2  0
 35 11  1  0
 19 15  1  0
 29 24  1  0
 33 27  1  0
M  END
>  <ChEMBL_ID>  (154) 
CHEMBL3092300

>  <SMILES>  (154) 
O=C(Nc1cc2c(Nc3ccc(F)c(Cl)c3)ncnc2cc1O[C@H]1CCOC1)N1CCC2(CC1)OCCO2

>  <MPO_Hit_Score>  (154) 
0.41220000000000001

>  <Tanimoto_to_Gefitinib>  (154) 
0.45650000000000002

>  <MolecularWeight>  (154) 
543.98000000000002

>  <LogP>  (154) 
4.7000000000000002

>  <TPSA>  (154) 
107.06999999999999

$$$$
CHEMBL2018752
     RDKit          2D

 28 30  0  0  0  0  0  0  0  0999 V2000
   -6.8288    3.7919    0.0000 C   0  0  0  0  0  0  0  0  0  0  0  0
   -7.2055    2.3400    0.0000 C   0  0  0  0  0  0  0  0  0  0  0  0
   -6.1365    1.2878    0.0000 O   0  0  0  0  0  0  0  0  0  0  0  0
   -6.5132   -0.1642    0.0000 C   0  0  0  0  0  0  0  0  0  0  0  0
   -7.9590   -0.5639    0.0000 O   0  0  0  0  0  0  0  0  0  0  0  0
   -5.4441   -1.2164    0.0000 N   0  0  0  0  0  0  0  0  0  0  0  0
   -3.9984   -0.8167    0.0000 C   0  0  0  0  0  0  0  0  0  0  0  0
   -3.6217    0.6353    0.0000 C   0  0  0  0  0  0  0  0  0  0  0  0
   -2.1759    1.0350    0.0000 C   0  0  0  0  0  0  0  0  0  0  0  0
   -1.1069   -0.0172    0.0000 C   0  0  0  0  0  0  0  0  0  0  0  0
    0.3389    0.3825    0.0000 N   0  0  0  0  0  0  0  0  0  0  0  0
    1.4079   -0.6697    0.0000 C   0  0  0  0  0  0  0  0  0  0  0  0
    1.0312   -2.1216    0.0000 N   0  0  0  0  0  0  0  0  0  0  0  0
    2.1003   -3.1738    0.0000 C   0  0  0  0  0  0  0  0  0  0  0  0
    3.5460   -2.7741    0.0000 N   0  0  0  0  0  0  0  0  0  0  0  0
    3.9228   -1.3222    0.0000 C   0  0  0  0  0  0  0  0  0  0  0  0
    5.3685   -0.9225    0.0000 C   0  0  0  0  0  0  0  0  0  0  0  0
    5.7452    0.5295    0.0000 C   0  0  0  0  0  0  0  0  0  0  0  0
    7.1910    0.9292    0.0000 O   0  0  0  0  0  0  0  0  0  0  0  0
    8.2600   -0.1230    0.0000 C   0  0  0  0  0  0  0  0  0  0  0  0
    4.6762    1.5817    0.0000 C   0  0  0  0  0  0  0  0  0  0  0  0
    5.0529    3.0336    0.0000 O   0  0  0  0  0  0  0  0  0  0  0  0
    3.9838    4.0858    0.0000 C   0  0  0  0  0  0  0  0  0  0  0  0
    3.2304    1.1819    0.0000 C   0  0  0  0  0  0  0  0  0  0  0  0
    2.8537   -0.2700    0.0000 C   0  0  0  0  0  0  0  0  0  0  0  0
   -1.4836   -1.4691    0.0000 C   0  0  0  0  0  0  0  0  0  0  0  0
   -2.9293   -1.8689    0.0000 C   0  0  0  0  0  0  0  0  0  0  0  0
   -3.3061   -3.3208    0.0000 Cl  0  0  0  0  0  0  0  0  0  0  0  0
  1  2  1  0
  2  3  1  0
  3  4  1  0
  4  5  2  0
  4  6  1  0
  6  7  1  0
  7  8  1  0
  8  9  2  0
  9 10  1  0
 10 11  1  0
 11 12  1  0
 12 13  1  0
 13 14  2  0
 14 15  1  0
 15 16  2  0
 16 17  1  0
 17 18  2  0
 18 19  1  0
 19 20  1  0
 18 21  1  0
 21 22  1  0
 22 23  1  0
 21 24  2  0
 24 25  1  0
 10 26  2  0
 26 27  1  0
 27 28  1  0
 27  7  2  0
 25 12  2  0
 25 16  1  0
M  END
>  <ChEMBL_ID>  (155) 
CHEMBL2018752

>  <SMILES>  (155) 
CCOC(=O)Nc1ccc(Nc2ncnc3cc(OC)c(OC)cc23)cc1Cl

>  <MPO_Hit_Score>  (155) 
0.40839999999999999

>  <Tanimoto_to_Gefitinib>  (155) 
0.47999999999999998

>  <MolecularWeight>  (155) 
402.83999999999997

>  <LogP>  (155) 
4.6100000000000003

>  <TPSA>  (155) 
94.599999999999994

$$$$
CHEMBL3221560
     RDKit          2D

 28 30  0  0  0  0  0  0  0  0999 V2000
   -6.8288    3.7919    0.0000 C   0  0  0  0  0  0  0  0  0  0  0  0
   -7.2055    2.3400    0.0000 C   0  0  0  0  0  0  0  0  0  0  0  0
   -6.1365    1.2878    0.0000 O   0  0  0  0  0  0  0  0  0  0  0  0
   -6.5132   -0.1642    0.0000 C   0  0  0  0  0  0  0  0  0  0  0  0
   -7.9590   -0.5639    0.0000 O   0  0  0  0  0  0  0  0  0  0  0  0
   -5.4441   -1.2164    0.0000 N   0  0  0  0  0  0  0  0  0  0  0  0
   -3.9984   -0.8167    0.0000 C   0  0  0  0  0  0  0  0  0  0  0  0
   -3.6217    0.6353    0.0000 C   0  0  0  0  0  0  0  0  0  0  0  0
   -2.1759    1.0350    0.0000 C   0  0  0  0  0  0  0  0  0  0  0  0
   -1.1069   -0.0172    0.0000 C   0  0  0  0  0  0  0  0  0  0  0  0
    0.3389    0.3825    0.0000 N   0  0  0  0  0  0  0  0  0  0  0  0
    1.4079   -0.6697    0.0000 C   0  0  0  0  0  0  0  0  0  0  0  0
    1.0312   -2.1216    0.0000 N   0  0  0  0  0  0  0  0  0  0  0  0
    2.1003   -3.1738    0.0000 C   0  0  0  0  0  0  0  0  0  0  0  0
    3.5460   -2.7741    0.0000 N   0  0  0  0  0  0  0  0  0  0  0  0
    3.9228   -1.3222    0.0000 C   0  0  0  0  0  0  0  0  0  0  0  0
    5.3685   -0.9225    0.0000 C   0  0  0  0  0  0  0  0  0  0  0  0
    5.7452    0.5295    0.0000 C   0  0  0  0  0  0  0  0  0  0  0  0
    7.1910    0.9292    0.0000 O   0  0  0  0  0  0  0  0  0  0  0  0
    8.2600   -0.1230    0.0000 C   0  0  0  0  0  0  0  0  0  0  0  0
    4.6762    1.5817    0.0000 C   0  0  0  0  0  0  0  0  0  0  0  0
    5.0529    3.0336    0.0000 O   0  0  0  0  0  0  0  0  0  0  0  0
    3.9838    4.0858    0.0000 C   0  0  0  0  0  0  0  0  0  0  0  0
    3.2304    1.1819    0.0000 C   0  0  0  0  0  0  0  0  0  0  0  0
    2.8537   -0.2700    0.0000 C   0  0  0  0  0  0  0  0  0  0  0  0
   -1.4836   -1.4691    0.0000 C   0  0  0  0  0  0  0  0  0  0  0  0
   -2.9293   -1.8689    0.0000 C   0  0  0  0  0  0  0  0  0  0  0  0
   -3.3061   -3.3208    0.0000 Cl  0  0  0  0  0  0  0  0  0  0  0  0
  1  2  1  0
  2  3  1  0
  3  4  1  0
  4  5  2  0
  4  6  1  0
  6  7  1  0
  7  8  1  0
  8  9  2  0
  9 10  1  0
 10 11  1  0
 11 12  1  0
 12 13  1  0
 13 14  2  0
 14 15  1  0
 15 16  2  0
 16 17  1  0
 17 18  2  0
 18 19  1  0
 19 20  1  0
 18 21  1  0
 21 22  1  0
 22 23  1  0
 21 24  2  0
 24 25  1  0
 10 26  2  0
 26 27  1  0
 27 28  1  0
 27  7  2  0
 25 12  2  0
 25 16  1  0
M  END
>  <ChEMBL_ID>  (156) 
CHEMBL3221560

>  <SMILES>  (156) 
CCOC(=O)Nc1ccc(Nc2ncnc3cc(OC)c(OC)cc23)cc1Cl

>  <MPO_Hit_Score>  (156) 
0.40839999999999999

>  <Tanimoto_to_Gefitinib>  (156) 
0.47999999999999998

>  <MolecularWeight>  (156) 
402.83999999999997

>  <LogP>  (156) 
4.6100000000000003

>  <TPSA>  (156) 
94.599999999999994

$$$$
CHEMBL204330
     RDKit          2D

 31 34  0  0  0  0  0  0  0  0999 V2000
   -3.1429    5.8282    0.0000 C   0  0  0  0  0  0  0  0  0  0  0  0
   -3.2083    4.3297    0.0000 O   0  0  0  0  0  0  0  0  0  0  0  0
   -1.9433    3.5237    0.0000 C   0  0  0  0  0  0  0  0  0  0  0  0
   -2.0087    2.0251    0.0000 C   0  0  0  0  0  0  0  0  0  0  0  0
   -0.7437    1.2191    0.0000 C   0  0  0  0  0  0  0  0  0  0  0  0
   -0.8092   -0.2795    0.0000 O   0  0  0  0  0  0  0  0  0  0  0  0
   -2.1397   -0.9720    0.0000 C   0  0  0  0  0  0  0  0  0  0  0  0
   -3.4048   -0.1661    0.0000 C   0  0  0  0  0  0  0  0  0  0  0  0
   -4.7353   -0.8586    0.0000 C   0  0  0  0  0  0  0  0  0  0  0  0
   -4.8008   -2.3572    0.0000 N   0  0  0  0  0  0  0  0  0  0  0  0
   -3.5357   -3.1632    0.0000 C   0  0  0  0  0  0  0  0  0  0  0  0
   -2.2052   -2.4706    0.0000 C   0  0  0  0  0  0  0  0  0  0  0  0
   -6.1313   -3.0498    0.0000 C   0  0  0  0  0  0  0  0  0  0  0  0
   -6.1968   -4.5484    0.0000 O   0  0  0  0  0  0  0  0  0  0  0  0
   -7.3964   -2.2438    0.0000 C   0  0  0  0  0  0  0  0  0  0  0  0
    0.5869    1.9117    0.0000 C   0  0  0  0  0  0  0  0  0  0  0  0
    1.8519    1.1057    0.0000 C   0  0  0  0  0  0  0  0  0  0  0  0
    1.7864   -0.3929    0.0000 N   0  0  0  0  0  0  0  0  0  0  0  0
    3.0515   -1.1989    0.0000 C   0  0  0  0  0  0  0  0  0  0  0  0
    2.9860   -2.6974    0.0000 C   0  0  0  0  0  0  0  0  0  0  0  0
    4.2511   -3.5034    0.0000 C   0  0  0  0  0  0  0  0  0  0  0  0
    5.5816   -2.8108    0.0000 C   0  0  0  0  0  0  0  0  0  0  0  0
    6.8467   -3.6168    0.0000 F   0  0  0  0  0  0  0  0  0  0  0  0
    5.6471   -1.3123    0.0000 C   0  0  0  0  0  0  0  0  0  0  0  0
    6.9776   -0.6197    0.0000 Cl  0  0  0  0  0  0  0  0  0  0  0  0
    4.3820   -0.5063    0.0000 C   0  0  0  0  0  0  0  0  0  0  0  0
    3.1825    1.7983    0.0000 N   0  0  0  0  0  0  0  0  0  0  0  0
    3.2479    3.2969    0.0000 C   0  0  0  0  0  0  0  0  0  0  0  0
    1.9829    4.1028    0.0000 N   0  0  0  0  0  0  0  0  0  0  0  0
    0.6523    3.4103    0.0000 C   0  0  0  0  0  0  0  0  0  0  0  0
   -0.6127    4.2162    0.0000 C   0  0  0  0  0  0  0  0  0  0  0  0
  1  2  1  0
  2  3  1  0
  3  4  1  0
  4  5  2  0
  5  6  1  0
  6  7  1  0
  7  8  1  0
  8  9  1  0
  9 10  1  0
 10 11  1  0
 11 12  1  0
 10 13  1  0
 13 14  2  0
 13 15  1  0
  5 16  1  0
 16 17  2  0
 17 18  1  0
 18 19  1  0
 19 20  1  0
 20 21  2  0
 21 22  1  0
 22 23  1  0
 22 24  2  0
 24 25  1  0
 24 26  1  0
 17 27  1  0
 27 28  2  0
 28 29  1  0
 29 30  2  0
 30 31  1  0
 31  3  2  0
 12  7  1  0
 30 16  1  0
 26 19  2  0
M  END
>  <ChEMBL_ID>  (157) 
CHEMBL204330

>  <SMILES>  (157) 
COc1cc(OC2CCN(C(C)=O)CC2)c2c(Nc3ccc(F)c(Cl)c3)ncnc2c1

>  <MPO_Hit_Score>  (157) 
0.4083

>  <Tanimoto_to_Gefitinib>  (157) 
0.41860000000000003

>  <MolecularWeight>  (157) 
444.88999999999999

>  <LogP>  (157) 
4.5599999999999996

>  <TPSA>  (157) 
76.579999999999998

$$$$
CHEMBL3775046
     RDKit          2D

 33 37  0  0  0  0  0  0  0  0999 V2000
    7.2773   -4.5160    0.0000 F   0  0  0  0  0  0  0  0  0  0  0  0
    6.1284   -3.5516    0.0000 C   0  0  0  0  0  0  0  0  0  0  0  0
    4.7188   -4.0643    0.0000 C   0  0  0  0  0  0  0  0  0  0  0  0
    3.5699   -3.0998    0.0000 C   0  0  0  0  0  0  0  0  0  0  0  0
    3.8308   -1.6227    0.0000 C   0  0  0  0  0  0  0  0  0  0  0  0
    2.6819   -0.6582    0.0000 N   0  0  0  0  0  0  0  0  0  0  0  0
    2.9428    0.8190    0.0000 C   0  0  0  0  0  0  0  0  0  0  0  0
    4.3524    1.3316    0.0000 N   0  0  0  0  0  0  0  0  0  0  0  0
    4.6133    2.8088    0.0000 C   0  0  0  0  0  0  0  0  0  0  0  0
    3.4644    3.7733    0.0000 N   0  0  0  0  0  0  0  0  0  0  0  0
    2.0548    3.2606    0.0000 C   0  0  0  0  0  0  0  0  0  0  0  0
    0.9059    4.2250    0.0000 C   0  0  0  0  0  0  0  0  0  0  0  0
   -0.5037    3.7123    0.0000 C   0  0  0  0  0  0  0  0  0  0  0  0
   -1.6526    4.6768    0.0000 O   0  0  0  0  0  0  0  0  0  0  0  0
   -3.0622    4.1641    0.0000 C   0  0  0  0  0  0  0  0  0  0  0  0
   -3.3231    2.6869    0.0000 C   0  0  0  0  0  0  0  0  0  0  0  0
   -4.7327    2.1743    0.0000 O   0  0  0  0  0  0  0  0  0  0  0  0
   -2.1742    1.7225    0.0000 N   0  0  0  0  0  0  0  0  0  0  0  0
   -2.4351    0.2453    0.0000 C   0  0  0  0  0  0  0  0  0  0  0  0
   -3.8447   -0.2674    0.0000 C   0  0  0  0  0  0  0  0  0  0  0  0
   -4.1055   -1.7445    0.0000 C   0  0  0  0  0  0  0  0  0  0  0  0
   -5.5152   -2.2572    0.0000 N   0  0  0  0  0  0  0  0  0  0  0  0
   -6.6640   -1.2927    0.0000 C   0  0  0  0  0  0  0  0  0  0  0  0
   -8.0737   -1.8054    0.0000 C   0  0  0  0  0  0  0  0  0  0  0  0
   -8.3345   -3.2826    0.0000 C   0  0  0  0  0  0  0  0  0  0  0  0
   -7.1857   -4.2470    0.0000 C   0  0  0  0  0  0  0  0  0  0  0  0
   -5.7760   -3.7343    0.0000 C   0  0  0  0  0  0  0  0  0  0  0  0
   -0.7646    2.2352    0.0000 C   0  0  0  0  0  0  0  0  0  0  0  0
    0.3843    1.2707    0.0000 C   0  0  0  0  0  0  0  0  0  0  0  0
    1.7939    1.7834    0.0000 C   0  0  0  0  0  0  0  0  0  0  0  0
    5.2404   -1.1100    0.0000 C   0  0  0  0  0  0  0  0  0  0  0  0
    6.3893   -2.0744    0.0000 C   0  0  0  0  0  0  0  0  0  0  0  0
    7.7989   -1.5617    0.0000 Cl  0  0  0  0  0  0  0  0  0  0  0  0
  1  2  1  0
  2  3  1  0
  3  4  2  0
  4  5  1  0
  5  6  1  0
  6  7  1  0
  7  8  1  0
  8  9  2  0
  9 10  1  0
 10 11  2  0
 11 12  1  0
 12 13  2  0
 13 14  1  0
 14 15  1  0
 15 16  1  0
 16 17  2  0
 16 18  1  0
 18 19  1  0
 19 20  1  0
 20 21  1  0
 21 22  1  0
 22 23  1  0
 23 24  1  0
 24 25  1  0
 25 26  1  0
 26 27  1  0
 18 28  1  0
 28 29  2  0
 29 30  1  0
  5 31  2  0
 31 32  1  0
 32 33  1  0
 32  2  2  0
 30  7  2  0
 30 11  1  0
 28 13  1  0
 27 22  1  0
M  END
>  <ChEMBL_ID>  (158) 
CHEMBL3775046

>  <SMILES>  (158) 
O=C1COc2cc3ncnc(Nc4ccc(F)c(Cl)c4)c3cc2N1CCCN1CCCCC1

>  <MPO_Hit_Score>  (158) 
0.4083

>  <Tanimoto_to_Gefitinib>  (158) 
0.51219999999999999

>  <MolecularWeight>  (158) 
469.94999999999999

>  <LogP>  (158) 
4.7699999999999996

>  <TPSA>  (158) 
70.590000000000003

$$$$
CHEMBL437885
     RDKit          2D

 27 30  0  0  0  0  0  0  0  0999 V2000
   -5.9711   -0.3493    0.0000 C   0  0  0  0  0  0  0  0  0  0  0  0
   -5.1796   -1.6235    0.0000 O   0  0  0  0  0  0  0  0  0  0  0  0
   -3.6804   -1.5751    0.0000 C   0  0  0  0  0  0  0  0  0  0  0  0
   -2.8888   -2.8493    0.0000 C   0  0  0  0  0  0  0  0  0  0  0  0
   -1.3896   -2.8009    0.0000 C   0  0  0  0  0  0  0  0  0  0  0  0
   -0.5981   -4.0751    0.0000 N   0  0  0  0  0  0  0  0  0  0  0  0
    0.9011   -4.0267    0.0000 C   0  0  0  0  0  0  0  0  0  0  0  0
    1.6088   -2.7041    0.0000 N   0  0  0  0  0  0  0  0  0  0  0  0
    0.8173   -1.4299    0.0000 C   0  0  0  0  0  0  0  0  0  0  0  0
    1.5250   -0.1074    0.0000 N   0  0  0  0  0  0  0  0  0  0  0  0
    3.0242   -0.0590    0.0000 C   0  0  0  0  0  0  0  0  0  0  0  0
    3.8157   -1.3332    0.0000 C   0  0  0  0  0  0  0  0  0  0  0  0
    5.3150   -1.2848    0.0000 C   0  0  0  0  0  0  0  0  0  0  0  0
    6.0227    0.0378    0.0000 C   0  0  0  0  0  0  0  0  0  0  0  0
    5.2311    1.3119    0.0000 C   0  0  0  0  0  0  0  0  0  0  0  0
    5.9388    2.6345    0.0000 Cl  0  0  0  0  0  0  0  0  0  0  0  0
    3.7319    1.2636    0.0000 C   0  0  0  0  0  0  0  0  0  0  0  0
    2.9404    2.5377    0.0000 F   0  0  0  0  0  0  0  0  0  0  0  0
   -0.6819   -1.4783    0.0000 C   0  0  0  0  0  0  0  0  0  0  0  0
   -1.4734   -0.2042    0.0000 C   0  0  0  0  0  0  0  0  0  0  0  0
   -2.9727   -0.2525    0.0000 C   0  0  0  0  0  0  0  0  0  0  0  0
   -3.7642    1.0216    0.0000 C   0  0  0  0  0  0  0  0  0  0  0  0
   -3.0565    2.3442    0.0000 N   0  0  0  0  0  0  0  0  0  0  0  0
   -3.7105    3.6941    0.0000 C   0  0  0  0  0  0  0  0  0  0  0  0
   -2.6287    4.7332    0.0000 C   0  0  0  0  0  0  0  0  0  0  0  0
   -1.3061    4.0255    0.0000 C   0  0  0  0  0  0  0  0  0  0  0  0
   -1.5705    2.5490    0.0000 C   0  0  0  0  0  0  0  0  0  0  0  0
  1  2  1  0
  2  3  1  0
  3  4  2  0
  4  5  1  0
  5  6  2  0
  6  7  1  0
  7  8  2  0
  8  9  1  0
  9 10  1  0
 10 11  1  0
 11 12  2  0
 12 13  1  0
 13 14  2  0
 14 15  1  0
 15 16  1  0
 15 17  2  0
 17 18  1  0
  9 19  2  0
 19 20  1  0
 20 21  2  0
 21 22  1  0
 22 23  1  0
 23 24  1  0
 24 25  1  0
 25 26  1  0
 26 27  1  0
 21  3  1  0
 19  5  1  0
 17 11  1  0
 27 23  1  0
M  END
>  <ChEMBL_ID>  (159) 
CHEMBL437885

>  <SMILES>  (159) 
COc1cc2ncnc(Nc3cccc(Cl)c3F)c2cc1CN1CCCC1

>  <MPO_Hit_Score>  (159) 
0.40500000000000003

>  <Tanimoto_to_Gefitinib>  (159) 
0.45569999999999999

>  <MolecularWeight>  (159) 
386.86000000000001

>  <LogP>  (159) 
4.7699999999999996

>  <TPSA>  (159) 
50.280000000000001

$$$$
CHEMBL2018748
     RDKit          2D

 28 30  0  0  0  0  0  0  0  0999 V2000
   -8.0859    3.8931    0.0000 C   0  0  0  0  0  0  0  0  0  0  0  0
   -6.9330    2.9335    0.0000 C   0  0  0  0  0  0  0  0  0  0  0  0
   -7.1876    1.4552    0.0000 C   0  0  0  0  0  0  0  0  0  0  0  0
   -6.0347    0.4956    0.0000 O   0  0  0  0  0  0  0  0  0  0  0  0
   -6.2892   -0.9826    0.0000 C   0  0  0  0  0  0  0  0  0  0  0  0
   -7.6967   -1.5012    0.0000 O   0  0  0  0  0  0  0  0  0  0  0  0
   -5.1363   -1.9422    0.0000 N   0  0  0  0  0  0  0  0  0  0  0  0
   -3.7289   -1.4235    0.0000 C   0  0  0  0  0  0  0  0  0  0  0  0
   -3.4743    0.0547    0.0000 C   0  0  0  0  0  0  0  0  0  0  0  0
   -2.0668    0.5734    0.0000 C   0  0  0  0  0  0  0  0  0  0  0  0
   -0.9139   -0.3862    0.0000 C   0  0  0  0  0  0  0  0  0  0  0  0
    0.4936    0.1324    0.0000 N   0  0  0  0  0  0  0  0  0  0  0  0
    1.6465   -0.8271    0.0000 C   0  0  0  0  0  0  0  0  0  0  0  0
    1.3919   -2.3054    0.0000 N   0  0  0  0  0  0  0  0  0  0  0  0
    2.5448   -3.2650    0.0000 C   0  0  0  0  0  0  0  0  0  0  0  0
    3.9523   -2.7463    0.0000 N   0  0  0  0  0  0  0  0  0  0  0  0
    4.2069   -1.2681    0.0000 C   0  0  0  0  0  0  0  0  0  0  0  0
    5.6144   -0.7494    0.0000 C   0  0  0  0  0  0  0  0  0  0  0  0
    5.8689    0.7288    0.0000 C   0  0  0  0  0  0  0  0  0  0  0  0
    7.2764    1.2475    0.0000 O   0  0  0  0  0  0  0  0  0  0  0  0
    8.4293    0.2879    0.0000 C   0  0  0  0  0  0  0  0  0  0  0  0
    4.7160    1.6884    0.0000 C   0  0  0  0  0  0  0  0  0  0  0  0
    4.9706    3.1666    0.0000 O   0  0  0  0  0  0  0  0  0  0  0  0
    3.8177    4.1262    0.0000 C   0  0  0  0  0  0  0  0  0  0  0  0
    3.3085    1.1697    0.0000 C   0  0  0  0  0  0  0  0  0  0  0  0
    3.0540   -0.3085    0.0000 C   0  0  0  0  0  0  0  0  0  0  0  0
   -1.1685   -1.8645    0.0000 C   0  0  0  0  0  0  0  0  0  0  0  0
   -2.5759   -2.3831    0.0000 C   0  0  0  0  0  0  0  0  0  0  0  0
  1  2  1  0
  2  3  1  0
  3  4  1  0
  4  5  1  0
  5  6  2  0
  5  7  1  0
  7  8  1  0
  8  9  1  0
  9 10  2  0
 10 11  1  0
 11 12  1  0
 12 13  1  0
 13 14  1  0
 14 15  2  0
 15 16  1  0
 16 17  2  0
 17 18  1  0
 18 19  2  0
 19 20  1  0
 20 21  1  0
 19 22  1  0
 22 23  1  0
 23 24  1  0
 22 25  2  0
 25 26  1  0
 11 27  2  0
 27 28  1  0
 28  8  2  0
 26 13  2  0
 26 17  1  0
M  END
>  <ChEMBL_ID>  (160) 
CHEMBL2018748

>  <SMILES>  (160) 
CCCOC(=O)Nc1ccc(Nc2ncnc3cc(OC)c(OC)cc23)cc1

>  <MPO_Hit_Score>  (160) 
0.40160000000000001

>  <Tanimoto_to_Gefitinib>  (160) 
0.4521

>  <MolecularWeight>  (160) 
382.42000000000002

>  <LogP>  (160) 
4.3499999999999996

>  <TPSA>  (160) 
94.599999999999994

$$$$
CHEMBL3221550
     RDKit          2D

 28 30  0  0  0  0  0  0  0  0999 V2000
   -8.0859    3.8931    0.0000 C   0  0  0  0  0  0  0  0  0  0  0  0
   -6.9330    2.9335    0.0000 C   0  0  0  0  0  0  0  0  0  0  0  0
   -7.1876    1.4552    0.0000 C   0  0  0  0  0  0  0  0  0  0  0  0
   -6.0347    0.4956    0.0000 O   0  0  0  0  0  0  0  0  0  0  0  0
   -6.2892   -0.9826    0.0000 C   0  0  0  0  0  0  0  0  0  0  0  0
   -7.6967   -1.5012    0.0000 O   0  0  0  0  0  0  0  0  0  0  0  0
   -5.1363   -1.9422    0.0000 N   0  0  0  0  0  0  0  0  0  0  0  0
   -3.7289   -1.4235    0.0000 C   0  0  0  0  0  0  0  0  0  0  0  0
   -3.4743    0.0547    0.0000 C   0  0  0  0  0  0  0  0  0  0  0  0
   -2.0668    0.5734    0.0000 C   0  0  0  0  0  0  0  0  0  0  0  0
   -0.9139   -0.3862    0.0000 C   0  0  0  0  0  0  0  0  0  0  0  0
    0.4936    0.1324    0.0000 N   0  0  0  0  0  0  0  0  0  0  0  0
    1.6465   -0.8271    0.0000 C   0  0  0  0  0  0  0  0  0  0  0  0
    1.3919   -2.3054    0.0000 N   0  0  0  0  0  0  0  0  0  0  0  0
    2.5448   -3.2650    0.0000 C   0  0  0  0  0  0  0  0  0  0  0  0
    3.9523   -2.7463    0.0000 N   0  0  0  0  0  0  0  0  0  0  0  0
    4.2069   -1.2681    0.0000 C   0  0  0  0  0  0  0  0  0  0  0  0
    5.6144   -0.7494    0.0000 C   0  0  0  0  0  0  0  0  0  0  0  0
    5.8689    0.7288    0.0000 C   0  0  0  0  0  0  0  0  0  0  0  0
    7.2764    1.2475    0.0000 O   0  0  0  0  0  0  0  0  0  0  0  0
    8.4293    0.2879    0.0000 C   0  0  0  0  0  0  0  0  0  0  0  0
    4.7160    1.6884    0.0000 C   0  0  0  0  0  0  0  0  0  0  0  0
    4.9706    3.1666    0.0000 O   0  0  0  0  0  0  0  0  0  0  0  0
    3.8177    4.1262    0.0000 C   0  0  0  0  0  0  0  0  0  0  0  0
    3.3085    1.1697    0.0000 C   0  0  0  0  0  0  0  0  0  0  0  0
    3.0540   -0.3085    0.0000 C   0  0  0  0  0  0  0  0  0  0  0  0
   -1.1685   -1.8645    0.0000 C   0  0  0  0  0  0  0  0  0  0  0  0
   -2.5759   -2.3831    0.0000 C   0  0  0  0  0  0  0  0  0  0  0  0
  1  2  1  0
  2  3  1  0
  3  4  1  0
  4  5  1  0
  5  6  2  0
  5  7  1  0
  7  8  1  0
  8  9  1  0
  9 10  2  0
 10 11  1  0
 11 12  1  0
 12 13  1  0
 13 14  1  0
 14 15  2  0
 15 16  1  0
 16 17  2  0
 17 18  1  0
 18 19  2  0
 19 20  1  0
 20 21  1  0
 19 22  1  0
 22 23  1  0
 23 24  1  0
 22 25  2  0
 25 26  1  0
 11 27  2  0
 27 28  1  0
 28  8  2  0
 26 13  2  0
 26 17  1  0
M  END
>  <ChEMBL_ID>  (161) 
CHEMBL3221550

>  <SMILES>  (161) 
CCCOC(=O)Nc1ccc(Nc2ncnc3cc(OC)c(OC)cc23)cc1

>  <MPO_Hit_Score>  (161) 
0.40160000000000001

>  <Tanimoto_to_Gefitinib>  (161) 
0.4521

>  <MolecularWeight>  (161) 
382.42000000000002

>  <LogP>  (161) 
4.3499999999999996

>  <TPSA>  (161) 
94.599999999999994

$$$$
CHEMBL2448066
     RDKit          2D

 31 34  0  0  0  0  0  0  0  0999 V2000
    3.1084    3.0855    0.0000 C   0  0  0  0  0  0  0  0  0  0  0  0
    1.6272    2.8487    0.0000 O   0  0  0  0  0  0  0  0  0  0  0  0
    1.0917    1.4476    0.0000 C   0  0  0  0  0  0  0  0  0  0  0  0
   -0.3895    1.2108    0.0000 C   0  0  0  0  0  0  0  0  0  0  0  0
   -0.9251   -0.1903    0.0000 C   0  0  0  0  0  0  0  0  0  0  0  0
   -2.4063   -0.4271    0.0000 C   0  0  0  0  0  0  0  0  0  0  0  0
   -3.3519    0.7373    0.0000 N   0  0  0  0  0  0  0  0  0  0  0  0
   -4.8331    0.5006    0.0000 C   0  0  0  0  0  0  0  0  0  0  0  0
   -5.7788    1.6649    0.0000 C   0  0  0  0  0  0  0  0  0  0  0  0
   -7.2600    1.4282    0.0000 C   0  0  0  0  0  0  0  0  0  0  0  0
   -8.2056    2.5926    0.0000 O   0  0  0  0  0  0  0  0  0  0  0  0
   -7.7955    0.0271    0.0000 C   0  0  0  0  0  0  0  0  0  0  0  0
   -9.2767   -0.2097    0.0000 Cl  0  0  0  0  0  0  0  0  0  0  0  0
   -6.8499   -1.1373    0.0000 C   0  0  0  0  0  0  0  0  0  0  0  0
   -5.3687   -0.9006    0.0000 C   0  0  0  0  0  0  0  0  0  0  0  0
   -4.4231   -2.0649    0.0000 F   0  0  0  0  0  0  0  0  0  0  0  0
   -2.9419   -1.8282    0.0000 N   0  0  0  0  0  0  0  0  0  0  0  0
   -1.9962   -2.9926    0.0000 C   0  0  0  0  0  0  0  0  0  0  0  0
   -0.5150   -2.7558    0.0000 N   0  0  0  0  0  0  0  0  0  0  0  0
    0.0205   -1.3547    0.0000 C   0  0  0  0  0  0  0  0  0  0  0  0
    1.5017   -1.1179    0.0000 C   0  0  0  0  0  0  0  0  0  0  0  0
    2.0373    0.2832    0.0000 C   0  0  0  0  0  0  0  0  0  0  0  0
    3.5185    0.5200    0.0000 O   0  0  0  0  0  0  0  0  0  0  0  0
    4.4641   -0.6444    0.0000 C   0  0  0  0  0  0  0  0  0  0  0  0
    5.9453   -0.4077    0.0000 C   0  0  0  0  0  0  0  0  0  0  0  0
    6.8910   -1.5720    0.0000 C   0  0  0  0  0  0  0  0  0  0  0  0
    8.3722   -1.3353    0.0000 C   0  0  0  0  0  0  0  0  0  0  0  0
    8.9077    0.0658    0.0000 N   0  0  0  0  0  0  0  0  0  0  0  0
   10.3889    0.3026    0.0000 C   0  0  0  0  0  0  0  0  0  0  0  0
    7.9621    1.2302    0.0000 C   0  0  0  0  0  0  0  0  0  0  0  0
    6.4809    0.9935    0.0000 C   0  0  0  0  0  0  0  0  0  0  0  0
  1  2  1  0
  2  3  1  0
  3  4  2  0
  4  5  1  0
  5  6  2  0
  6  7  1  0
  7  8  1  0
  8  9  2  0
  9 10  1  0
 10 11  1  0
 10 12  2  0
 12 13  1  0
 12 14  1  0
 14 15  2  0
 15 16  1  0
  6 17  1  0
 17 18  2  0
 18 19  1  0
 19 20  2  0
 20 21  1  0
 21 22  2  0
 22 23  1  0
 23 24  1  0
 24 25  1  0
 25 26  1  0
 26 27  1  0
 27 28  1  0
 28 29  1  0
 28 30  1  0
 30 31  1  0
 22  3  1  0
 20  5  1  0
 15  8  1  0
 31 25  1  0
M  END
>  <ChEMBL_ID>  (162) 
CHEMBL2448066

>  <SMILES>  (162) 
COc1cc2c(Nc3cc(O)c(Cl)cc3F)ncnc2cc1OCC1CCN(C)CC1

>  <MPO_Hit_Score>  (162) 
0.4012

>  <Tanimoto_to_Gefitinib>  (162) 
0.46339999999999998

>  <MolecularWeight>  (162) 
446.91000000000003

>  <LogP>  (162) 
4.5999999999999996

>  <TPSA>  (162) 
79.739999999999995

$$$$
CHEMBL2018750
     RDKit          2D

 28 30  0  0  0  0  0  0  0  0999 V2000
   -8.1573    0.1789    0.0000 C   0  0  0  0  0  0  0  0  0  0  0  0
   -7.2426   -1.0100    0.0000 O   0  0  0  0  0  0  0  0  0  0  0  0
   -5.7557   -0.8122    0.0000 C   0  0  0  0  0  0  0  0  0  0  0  0
   -4.8410   -2.0011    0.0000 C   0  0  0  0  0  0  0  0  0  0  0  0
   -3.3540   -1.8033    0.0000 C   0  0  0  0  0  0  0  0  0  0  0  0
   -2.4393   -2.9921    0.0000 N   0  0  0  0  0  0  0  0  0  0  0  0
   -0.9524   -2.7944    0.0000 C   0  0  0  0  0  0  0  0  0  0  0  0
   -0.3802   -1.4078    0.0000 N   0  0  0  0  0  0  0  0  0  0  0  0
   -1.2949   -0.2190    0.0000 C   0  0  0  0  0  0  0  0  0  0  0  0
   -0.7227    1.1676    0.0000 N   0  0  0  0  0  0  0  0  0  0  0  0
    0.7642    1.3653    0.0000 C   0  0  0  0  0  0  0  0  0  0  0  0
    1.6789    0.1765    0.0000 C   0  0  0  0  0  0  0  0  0  0  0  0
    3.1658    0.3742    0.0000 C   0  0  0  0  0  0  0  0  0  0  0  0
    3.7380    1.7608    0.0000 C   0  0  0  0  0  0  0  0  0  0  0  0
    5.2249    1.9585    0.0000 N   0  0  0  0  0  0  0  0  0  0  0  0
    6.1396    0.7697    0.0000 C   0  0  0  0  0  0  0  0  0  0  0  0
    7.6265    0.9674    0.0000 O   0  0  0  0  0  0  0  0  0  0  0  0
    5.5674   -0.6169    0.0000 O   0  0  0  0  0  0  0  0  0  0  0  0
    6.4821   -1.8057    0.0000 C   0  0  0  0  0  0  0  0  0  0  0  0
    5.9099   -3.1923    0.0000 C   0  0  0  0  0  0  0  0  0  0  0  0
    7.9690   -1.6080    0.0000 C   0  0  0  0  0  0  0  0  0  0  0  0
    2.8233    2.9496    0.0000 C   0  0  0  0  0  0  0  0  0  0  0  0
    1.3364    2.7519    0.0000 C   0  0  0  0  0  0  0  0  0  0  0  0
   -2.7818   -0.4167    0.0000 C   0  0  0  0  0  0  0  0  0  0  0  0
   -3.6965    0.7721    0.0000 C   0  0  0  0  0  0  0  0  0  0  0  0
   -5.1834    0.5744    0.0000 C   0  0  0  0  0  0  0  0  0  0  0  0
   -6.0981    1.7632    0.0000 O   0  0  0  0  0  0  0  0  0  0  0  0
   -5.5259    3.1498    0.0000 C   0  0  0  0  0  0  0  0  0  0  0  0
  1  2  1  0
  2  3  1  0
  3  4  2  0
  4  5  1  0
  5  6  2  0
  6  7  1  0
  7  8  2  0
  8  9  1  0
  9 10  1  0
 10 11  1  0
 11 12  1  0
 12 13  2  0
 13 14  1  0
 14 15  1  0
 15 16  1  0
 16 17  2  0
 16 18  1  0
 18 19  1  0
 19 20  1  0
 19 21  1  0
 14 22  2  0
 22 23  1  0
  9 24  2  0
 24 25  1  0
 25 26  2  0
 26 27  1  0
 27 28  1  0
 26  3  1  0
 24  5  1  0
 23 11  2  0
M  END
>  <ChEMBL_ID>  (163) 
CHEMBL2018750

>  <SMILES>  (163) 
COc1cc2ncnc(Nc3ccc(NC(=O)OC(C)C)cc3)c2cc1OC

>  <MPO_Hit_Score>  (163) 
0.40050000000000002

>  <Tanimoto_to_Gefitinib>  (163) 
0.40000000000000002

>  <MolecularWeight>  (163) 
382.42000000000002

>  <LogP>  (163) 
4.3499999999999996

>  <TPSA>  (163) 
94.599999999999994

$$$$
CHEMBL92709
     RDKit          2D

 23 25  0  0  0  0  0  0  0  0999 V2000
   -6.4337    1.1207    0.0000 C   0  0  0  0  0  0  0  0  0  0  0  0
   -5.7626   -0.2209    0.0000 O   0  0  0  0  0  0  0  0  0  0  0  0
   -4.2653   -0.3105    0.0000 C   0  0  0  0  0  0  0  0  0  0  0  0
   -3.5943   -1.6520    0.0000 C   0  0  0  0  0  0  0  0  0  0  0  0
   -2.0969   -1.7417    0.0000 C   0  0  0  0  0  0  0  0  0  0  0  0
   -1.4259   -3.0832    0.0000 N   0  0  0  0  0  0  0  0  0  0  0  0
    0.0714   -3.1728    0.0000 C   0  0  0  0  0  0  0  0  0  0  0  0
    0.8977   -1.9209    0.0000 N   0  0  0  0  0  0  0  0  0  0  0  0
    0.2267   -0.5794    0.0000 C   0  0  0  0  0  0  0  0  0  0  0  0
    1.0529    0.6725    0.0000 N   0  0  0  0  0  0  0  0  0  0  0  0
    2.5503    0.5829    0.0000 C   0  0  0  0  0  0  0  0  0  0  0  0
    3.2213   -0.7586    0.0000 C   0  0  0  0  0  0  0  0  0  0  0  0
    4.7186   -0.8483    0.0000 C   0  0  0  0  0  0  0  0  0  0  0  0
    5.3897   -2.1898    0.0000 Br  0  0  0  0  0  0  0  0  0  0  0  0
    5.5449    0.4036    0.0000 C   0  0  0  0  0  0  0  0  0  0  0  0
    4.8739    1.7452    0.0000 C   0  0  0  0  0  0  0  0  0  0  0  0
    5.7001    2.9971    0.0000 Br  0  0  0  0  0  0  0  0  0  0  0  0
    3.3765    1.8348    0.0000 C   0  0  0  0  0  0  0  0  0  0  0  0
   -1.2707   -0.4897    0.0000 C   0  0  0  0  0  0  0  0  0  0  0  0
   -1.9417    0.8518    0.0000 C   0  0  0  0  0  0  0  0  0  0  0  0
   -3.4390    0.9414    0.0000 C   0  0  0  0  0  0  0  0  0  0  0  0
   -4.1101    2.2829    0.0000 O   0  0  0  0  0  0  0  0  0  0  0  0
   -3.2838    3.5348    0.0000 C   0  0  0  0  0  0  0  0  0  0  0  0
  1  2  1  0
  2  3  1  0
  3  4  2  0
  4  5  1  0
  5  6  2  0
  6  7  1  0
  7  8  2  0
  8  9  1  0
  9 10  1  0
 10 11  1  0
 11 12  2  0
 12 13  1  0
 13 14  1  0
 13 15  2  0
 15 16  1  0
 16 17  1  0
 16 18  2  0
  9 19  2  0
 19 20  1  0
 20 21  2  0
 21 22  1  0
 22 23  1  0
 21  3  1  0
 19  5  1  0
 18 11  1  0
M  END
>  <ChEMBL_ID>  (164) 
CHEMBL92709

>  <SMILES>  (164) 
COc1cc2ncnc(Nc3cc(Br)cc(Br)c3)c2cc1OC

>  <MPO_Hit_Score>  (164) 
0.39850000000000002

>  <Tanimoto_to_Gefitinib>  (164) 
0.41789999999999999

>  <MolecularWeight>  (164) 
439.11000000000001

>  <LogP>  (164) 
4.9199999999999999

>  <TPSA>  (164) 
56.270000000000003

$$$$
CHEMBL2448064
     RDKit          2D

 29 32  0  0  0  0  0  0  0  0999 V2000
    3.2631    3.1039    0.0000 C   0  0  0  0  0  0  0  0  0  0  0  0
    1.7764    2.9046    0.0000 O   0  0  0  0  0  0  0  0  0  0  0  0
    1.2057    1.5174    0.0000 C   0  0  0  0  0  0  0  0  0  0  0  0
   -0.2810    1.3182    0.0000 C   0  0  0  0  0  0  0  0  0  0  0  0
   -0.8518   -0.0690    0.0000 C   0  0  0  0  0  0  0  0  0  0  0  0
   -2.3385   -0.2682    0.0000 C   0  0  0  0  0  0  0  0  0  0  0  0
   -3.2545    0.9197    0.0000 N   0  0  0  0  0  0  0  0  0  0  0  0
   -4.7412    0.7204    0.0000 C   0  0  0  0  0  0  0  0  0  0  0  0
   -5.6571    1.9083    0.0000 C   0  0  0  0  0  0  0  0  0  0  0  0
   -7.1438    1.7090    0.0000 C   0  0  0  0  0  0  0  0  0  0  0  0
   -7.7146    0.3219    0.0000 C   0  0  0  0  0  0  0  0  0  0  0  0
   -9.2013    0.1226    0.0000 Cl  0  0  0  0  0  0  0  0  0  0  0  0
   -6.7987   -0.8660    0.0000 C   0  0  0  0  0  0  0  0  0  0  0  0
   -5.3120   -0.6668    0.0000 C   0  0  0  0  0  0  0  0  0  0  0  0
   -4.3960   -1.8547    0.0000 F   0  0  0  0  0  0  0  0  0  0  0  0
   -2.9093   -1.6554    0.0000 N   0  0  0  0  0  0  0  0  0  0  0  0
   -1.9934   -2.8433    0.0000 C   0  0  0  0  0  0  0  0  0  0  0  0
   -0.5067   -2.6440    0.0000 N   0  0  0  0  0  0  0  0  0  0  0  0
    0.0641   -1.2569    0.0000 C   0  0  0  0  0  0  0  0  0  0  0  0
    1.5508   -1.0576    0.0000 C   0  0  0  0  0  0  0  0  0  0  0  0
    2.1216    0.3296    0.0000 C   0  0  0  0  0  0  0  0  0  0  0  0
    3.6083    0.5288    0.0000 O   0  0  0  0  0  0  0  0  0  0  0  0
    4.5242   -0.6591    0.0000 C   0  0  0  0  0  0  0  0  0  0  0  0
    6.0109   -0.4598    0.0000 C   0  0  0  0  0  0  0  0  0  0  0  0
    6.9268   -1.6477    0.0000 C   0  0  0  0  0  0  0  0  0  0  0  0
    8.4135   -1.4484    0.0000 C   0  0  0  0  0  0  0  0  0  0  0  0
    8.9843   -0.0613    0.0000 N   0  0  0  0  0  0  0  0  0  0  0  0
    8.0684    1.1266    0.0000 C   0  0  0  0  0  0  0  0  0  0  0  0
    6.5817    0.9273    0.0000 C   0  0  0  0  0  0  0  0  0  0  0  0
  1  2  1  0
  2  3  1  0
  3  4  2  0
  4  5  1  0
  5  6  2  0
  6  7  1  0
  7  8  1  0
  8  9  1  0
  9 10  2  0
 10 11  1  0
 11 12  1  0
 11 13  2  0
 13 14  1  0
 14 15  1  0
  6 16  1  0
 16 17  2  0
 17 18  1  0
 18 19  2  0
 19 20  1  0
 20 21  2  0
 21 22  1  0
 22 23  1  0
 23 24  1  0
 24 25  1  0
 25 26  1  0
 26 27  1  0
 27 28  1  0
 28 29  1  0
 21  3  1  0
 19  5  1  0
 14  8  2  0
 29 24  1  0
M  END
>  <ChEMBL_ID>  (165) 
CHEMBL2448064

>  <SMILES>  (165) 
COc1cc2c(Nc3ccc(Cl)cc3F)ncnc2cc1OCC1CCNCC1

>  <MPO_Hit_Score>  (165) 
0.39739999999999998

>  <Tanimoto_to_Gefitinib>  (165) 
0.44440000000000002

>  <MolecularWeight>  (165) 
416.88

>  <LogP>  (165) 
4.5499999999999998

>  <TPSA>  (165) 
68.299999999999997

$$$$
CHEMBL281990
     RDKit          2D

 30 33  0  0  0  0  0  0  0  0999 V2000
    2.9194    3.0943    0.0000 C   0  0  0  0  0  0  0  0  0  0  0  0
    1.4324    2.8976    0.0000 O   0  0  0  0  0  0  0  0  0  0  0  0
    0.8592    1.5114    0.0000 C   0  0  0  0  0  0  0  0  0  0  0  0
   -0.6278    1.3147    0.0000 C   0  0  0  0  0  0  0  0  0  0  0  0
   -1.2010   -0.0715    0.0000 C   0  0  0  0  0  0  0  0  0  0  0  0
   -2.6880   -0.2682    0.0000 C   0  0  0  0  0  0  0  0  0  0  0  0
   -3.6019    0.9212    0.0000 N   0  0  0  0  0  0  0  0  0  0  0  0
   -5.0890    0.7245    0.0000 C   0  0  0  0  0  0  0  0  0  0  0  0
   -6.0029    1.9140    0.0000 C   0  0  0  0  0  0  0  0  0  0  0  0
   -7.4899    1.7172    0.0000 C   0  0  0  0  0  0  0  0  0  0  0  0
   -8.0631    0.3311    0.0000 C   0  0  0  0  0  0  0  0  0  0  0  0
   -9.5501    0.1344    0.0000 C   0  0  0  0  0  0  0  0  0  0  0  0
   -7.1492   -0.8584    0.0000 C   0  0  0  0  0  0  0  0  0  0  0  0
   -5.6621   -0.6617    0.0000 C   0  0  0  0  0  0  0  0  0  0  0  0
   -4.7482   -1.8511    0.0000 F   0  0  0  0  0  0  0  0  0  0  0  0
   -3.2612   -1.6544    0.0000 N   0  0  0  0  0  0  0  0  0  0  0  0
   -2.3473   -2.8439    0.0000 C   0  0  0  0  0  0  0  0  0  0  0  0
   -0.8603   -2.6472    0.0000 N   0  0  0  0  0  0  0  0  0  0  0  0
   -0.2871   -1.2610    0.0000 C   0  0  0  0  0  0  0  0  0  0  0  0
    1.1999   -1.0643    0.0000 C   0  0  0  0  0  0  0  0  0  0  0  0
    1.7731    0.3219    0.0000 C   0  0  0  0  0  0  0  0  0  0  0  0
    3.2601    0.5186    0.0000 O   0  0  0  0  0  0  0  0  0  0  0  0
    4.1740   -0.6708    0.0000 C   0  0  0  0  0  0  0  0  0  0  0  0
    5.6611   -0.4741    0.0000 C   0  0  0  0  0  0  0  0  0  0  0  0
    6.5750   -1.6636    0.0000 C   0  0  0  0  0  0  0  0  0  0  0  0
    8.0620   -1.4669    0.0000 C   0  0  0  0  0  0  0  0  0  0  0  0
    8.6352   -0.0807    0.0000 N   0  0  0  0  0  0  0  0  0  0  0  0
   10.1222    0.1160    0.0000 C   0  0  0  0  0  0  0  0  0  0  0  0
    7.7213    1.1088    0.0000 C   0  0  0  0  0  0  0  0  0  0  0  0
    6.2342    0.9121    0.0000 C   0  0  0  0  0  0  0  0  0  0  0  0
  1  2  1  0
  2  3  1  0
  3  4  2  0
  4  5  1  0
  5  6  2  0
  6  7  1  0
  7  8  1  0
  8  9  1  0
  9 10  2  0
 10 11  1  0
 11 12  1  0
 11 13  2  0
 13 14  1  0
 14 15  1  0
  6 16  1  0
 16 17  2  0
 17 18  1  0
 18 19  2  0
 19 20  1  0
 20 21  2  0
 21 22  1  0
 22 23  1  0
 23 24  1  0
 24 25  1  0
 25 26  1  0
 26 27  1  0
 27 28  1  0
 27 29  1  0
 29 30  1  0
 21  3  1  0
 19  5  1  0
 14  8  2  0
 30 24  1  0
M  END
>  <ChEMBL_ID>  (166) 
CHEMBL281990

>  <SMILES>  (166) 
COc1cc2c(Nc3ccc(C)cc3F)ncnc2cc1OCC1CCN(C)CC1

>  <MPO_Hit_Score>  (166) 
0.39739999999999998

>  <Tanimoto_to_Gefitinib>  (166) 
0.44440000000000002

>  <MolecularWeight>  (166) 
410.49000000000001

>  <LogP>  (166) 
4.5499999999999998

>  <TPSA>  (166) 
59.509999999999998

$$$$
CHEMBL3221561
     RDKit          2D

 28 30  0  0  0  0  0  0  0  0999 V2000
   -2.3893    4.3653    0.0000 C   0  0  0  0  0  0  0  0  0  0  0  0
   -3.7523    3.7389    0.0000 C   0  0  0  0  0  0  0  0  0  0  0  0
   -3.8913    2.2454    0.0000 O   0  0  0  0  0  0  0  0  0  0  0  0
   -5.2543    1.6190    0.0000 C   0  0  0  0  0  0  0  0  0  0  0  0
   -6.4782    2.4862    0.0000 O   0  0  0  0  0  0  0  0  0  0  0  0
   -5.3933    0.1255    0.0000 N   0  0  0  0  0  0  0  0  0  0  0  0
   -4.1694   -0.7417    0.0000 C   0  0  0  0  0  0  0  0  0  0  0  0
   -2.8064   -0.1153    0.0000 C   0  0  0  0  0  0  0  0  0  0  0  0
   -1.5825   -0.9825    0.0000 C   0  0  0  0  0  0  0  0  0  0  0  0
   -0.2195   -0.3562    0.0000 N   0  0  0  0  0  0  0  0  0  0  0  0
    1.0044   -1.2234    0.0000 C   0  0  0  0  0  0  0  0  0  0  0  0
    0.8653   -2.7169    0.0000 N   0  0  0  0  0  0  0  0  0  0  0  0
    2.0893   -3.5841    0.0000 C   0  0  0  0  0  0  0  0  0  0  0  0
    3.4522   -2.9578    0.0000 N   0  0  0  0  0  0  0  0  0  0  0  0
    3.5913   -1.4642    0.0000 C   0  0  0  0  0  0  0  0  0  0  0  0
    4.9542   -0.8379    0.0000 C   0  0  0  0  0  0  0  0  0  0  0  0
    5.0933    0.6557    0.0000 C   0  0  0  0  0  0  0  0  0  0  0  0
    6.4563    1.2820    0.0000 O   0  0  0  0  0  0  0  0  0  0  0  0
    7.6802    0.4148    0.0000 C   0  0  0  0  0  0  0  0  0  0  0  0
    3.8694    1.5229    0.0000 C   0  0  0  0  0  0  0  0  0  0  0  0
    4.0084    3.0164    0.0000 O   0  0  0  0  0  0  0  0  0  0  0  0
    2.7845    3.8836    0.0000 C   0  0  0  0  0  0  0  0  0  0  0  0
    2.5064    0.8965    0.0000 C   0  0  0  0  0  0  0  0  0  0  0  0
    2.3673   -0.5970    0.0000 C   0  0  0  0  0  0  0  0  0  0  0  0
   -1.7216   -2.4761    0.0000 C   0  0  0  0  0  0  0  0  0  0  0  0
   -3.0845   -3.1024    0.0000 C   0  0  0  0  0  0  0  0  0  0  0  0
   -4.3084   -2.2352    0.0000 C   0  0  0  0  0  0  0  0  0  0  0  0
   -5.6714   -2.8616    0.0000 Cl  0  0  0  0  0  0  0  0  0  0  0  0
  1  2  1  0
  2  3  1  0
  3  4  1  0
  4  5  2  0
  4  6  1  0
  6  7  1  0
  7  8  1  0
  8  9  2  0
  9 10  1  0
 10 11  1  0
 11 12  1  0
 12 13  2  0
 13 14  1  0
 14 15  2  0
 15 16  1  0
 16 17  2  0
 17 18  1  0
 18 19  1  0
 17 20  1  0
 20 21  1  0
 21 22  1  0
 20 23  2  0
 23 24  1  0
  9 25  1  0
 25 26  2  0
 26 27  1  0
 27 28  1  0
 27  7  2  0
 24 11  2  0
 24 15  1  0
M  END
>  <ChEMBL_ID>  (167) 
CHEMBL3221561

>  <SMILES>  (167) 
CCOC(=O)Nc1cc(Nc2ncnc3cc(OC)c(OC)cc23)ccc1Cl

>  <MPO_Hit_Score>  (167) 
0.3957

>  <Tanimoto_to_Gefitinib>  (167) 
0.45450000000000002

>  <MolecularWeight>  (167) 
402.83999999999997

>  <LogP>  (167) 
4.6100000000000003

>  <TPSA>  (167) 
94.599999999999994

$$$$
CHEMBL2018760
     RDKit          2D

 28 30  0  0  0  0  0  0  0  0999 V2000
   -2.3893    4.3653    0.0000 C   0  0  0  0  0  0  0  0  0  0  0  0
   -3.7523    3.7389    0.0000 C   0  0  0  0  0  0  0  0  0  0  0  0
   -3.8913    2.2454    0.0000 O   0  0  0  0  0  0  0  0  0  0  0  0
   -5.2543    1.6190    0.0000 C   0  0  0  0  0  0  0  0  0  0  0  0
   -6.4782    2.4862    0.0000 O   0  0  0  0  0  0  0  0  0  0  0  0
   -5.3933    0.1255    0.0000 N   0  0  0  0  0  0  0  0  0  0  0  0
   -4.1694   -0.7417    0.0000 C   0  0  0  0  0  0  0  0  0  0  0  0
   -2.8064   -0.1153    0.0000 C   0  0  0  0  0  0  0  0  0  0  0  0
   -1.5825   -0.9825    0.0000 C   0  0  0  0  0  0  0  0  0  0  0  0
   -0.2195   -0.3562    0.0000 N   0  0  0  0  0  0  0  0  0  0  0  0
    1.0044   -1.2234    0.0000 C   0  0  0  0  0  0  0  0  0  0  0  0
    0.8653   -2.7169    0.0000 N   0  0  0  0  0  0  0  0  0  0  0  0
    2.0893   -3.5841    0.0000 C   0  0  0  0  0  0  0  0  0  0  0  0
    3.4522   -2.9578    0.0000 N   0  0  0  0  0  0  0  0  0  0  0  0
    3.5913   -1.4642    0.0000 C   0  0  0  0  0  0  0  0  0  0  0  0
    4.9542   -0.8379    0.0000 C   0  0  0  0  0  0  0  0  0  0  0  0
    5.0933    0.6557    0.0000 C   0  0  0  0  0  0  0  0  0  0  0  0
    6.4563    1.2820    0.0000 O   0  0  0  0  0  0  0  0  0  0  0  0
    7.6802    0.4148    0.0000 C   0  0  0  0  0  0  0  0  0  0  0  0
    3.8694    1.5229    0.0000 C   0  0  0  0  0  0  0  0  0  0  0  0
    4.0084    3.0164    0.0000 O   0  0  0  0  0  0  0  0  0  0  0  0
    2.7845    3.8836    0.0000 C   0  0  0  0  0  0  0  0  0  0  0  0
    2.5064    0.8965    0.0000 C   0  0  0  0  0  0  0  0  0  0  0  0
    2.3673   -0.5970    0.0000 C   0  0  0  0  0  0  0  0  0  0  0  0
   -1.7216   -2.4761    0.0000 C   0  0  0  0  0  0  0  0  0  0  0  0
   -3.0845   -3.1024    0.0000 C   0  0  0  0  0  0  0  0  0  0  0  0
   -4.3084   -2.2352    0.0000 C   0  0  0  0  0  0  0  0  0  0  0  0
   -5.6714   -2.8616    0.0000 Cl  0  0  0  0  0  0  0  0  0  0  0  0
  1  2  1  0
  2  3  1  0
  3  4  1  0
  4  5  2  0
  4  6  1  0
  6  7  1  0
  7  8  1  0
  8  9  2  0
  9 10  1  0
 10 11  1  0
 11 12  1  0
 12 13  2  0
 13 14  1  0
 14 15  2  0
 15 16  1  0
 16 17  2  0
 17 18  1  0
 18 19  1  0
 17 20  1  0
 20 21  1  0
 21 22  1  0
 20 23  2  0
 23 24  1  0
  9 25  1  0
 25 26  2  0
 26 27  1  0
 27 28  1  0
 27  7  2  0
 24 11  2  0
 24 15  1  0
M  END
>  <ChEMBL_ID>  (168) 
CHEMBL2018760

>  <SMILES>  (168) 
CCOC(=O)Nc1cc(Nc2ncnc3cc(OC)c(OC)cc23)ccc1Cl

>  <MPO_Hit_Score>  (168) 
0.3957

>  <Tanimoto_to_Gefitinib>  (168) 
0.45450000000000002

>  <MolecularWeight>  (168) 
402.83999999999997

>  <LogP>  (168) 
4.6100000000000003

>  <TPSA>  (168) 
94.599999999999994

$$$$
CHEMBL293064
     RDKit          2D

 29 31  0  0  0  0  0  0  0  0999 V2000
   -9.0738   -2.3806    0.0000 C   0  0  0  0  0  0  0  0  0  0  0  0
   -7.6048   -2.6838    0.0000 C   0  0  0  0  0  0  0  0  0  0  0  0
   -6.6077   -1.5632    0.0000 N   0  0  0  0  0  0  0  0  0  0  0  0
   -7.0795   -0.1394    0.0000 C   0  0  0  0  0  0  0  0  0  0  0  0
   -8.5486    0.1639    0.0000 C   0  0  0  0  0  0  0  0  0  0  0  0
   -5.1386   -1.8665    0.0000 C   0  0  0  0  0  0  0  0  0  0  0  0
   -4.1415   -0.7459    0.0000 C   0  0  0  0  0  0  0  0  0  0  0  0
   -2.6725   -1.0492    0.0000 O   0  0  0  0  0  0  0  0  0  0  0  0
   -1.6753    0.0714    0.0000 C   0  0  0  0  0  0  0  0  0  0  0  0
   -0.2063   -0.2318    0.0000 C   0  0  0  0  0  0  0  0  0  0  0  0
    0.7908    0.8887    0.0000 C   0  0  0  0  0  0  0  0  0  0  0  0
    2.2599    0.5855    0.0000 C   0  0  0  0  0  0  0  0  0  0  0  0
    2.7317   -0.8384    0.0000 N   0  0  0  0  0  0  0  0  0  0  0  0
    4.2008   -1.1416    0.0000 C   0  0  0  0  0  0  0  0  0  0  0  0
    4.6727   -2.5655    0.0000 C   0  0  0  0  0  0  0  0  0  0  0  0
    6.1417   -2.8687    0.0000 C   0  0  0  0  0  0  0  0  0  0  0  0
    7.1388   -1.7481    0.0000 C   0  0  0  0  0  0  0  0  0  0  0  0
    8.6078   -2.0514    0.0000 F   0  0  0  0  0  0  0  0  0  0  0  0
    6.6669   -0.3243    0.0000 C   0  0  0  0  0  0  0  0  0  0  0  0
    7.6641    0.7963    0.0000 Cl  0  0  0  0  0  0  0  0  0  0  0  0
    5.1979   -0.0210    0.0000 C   0  0  0  0  0  0  0  0  0  0  0  0
    3.2570    1.7061    0.0000 N   0  0  0  0  0  0  0  0  0  0  0  0
    2.7851    3.1299    0.0000 C   0  0  0  0  0  0  0  0  0  0  0  0
    1.3161    3.4332    0.0000 N   0  0  0  0  0  0  0  0  0  0  0  0
    0.3190    2.3126    0.0000 C   0  0  0  0  0  0  0  0  0  0  0  0
   -1.1501    2.6158    0.0000 C   0  0  0  0  0  0  0  0  0  0  0  0
   -2.1472    1.4953    0.0000 C   0  0  0  0  0  0  0  0  0  0  0  0
   -3.6162    1.7985    0.0000 O   0  0  0  0  0  0  0  0  0  0  0  0
   -4.0881    3.2224    0.0000 C   0  0  0  0  0  0  0  0  0  0  0  0
  1  2  1  0
  2  3  1  0
  3  4  1  0
  4  5  1  0
  3  6  1  0
  6  7  1  0
  7  8  1  0
  8  9  1  0
  9 10  2  0
 10 11  1  0
 11 12  2  0
 12 13  1  0
 13 14  1  0
 14 15  1  0
 15 16  2  0
 16 17  1  0
 17 18  1  0
 17 19  2  0
 19 20  1  0
 19 21  1  0
 12 22  1  0
 22 23  2  0
 23 24  1  0
 24 25  2  0
 25 26  1  0
 26 27  2  0
 27 28  1  0
 28 29  1  0
 27  9  1  0
 25 11  1  0
 21 14  2  0
M  END
>  <ChEMBL_ID>  (169) 
CHEMBL293064

>  <SMILES>  (169) 
CCN(CC)CCOc1cc2c(Nc3ccc(F)c(Cl)c3)ncnc2cc1OC

>  <MPO_Hit_Score>  (169) 
0.39219999999999999

>  <Tanimoto_to_Gefitinib>  (169) 
0.6522

>  <MolecularWeight>  (169) 
418.89999999999998

>  <LogP>  (169) 
4.9000000000000004

>  <TPSA>  (169) 
59.509999999999998

$$$$
CHEMBL2018765
     RDKit          2D

 29 31  0  0  0  0  0  0  0  0999 V2000
   -9.4223    1.5036    0.0000 C   0  0  0  0  0  0  0  0  0  0  0  0
   -8.5135    0.3103    0.0000 C   0  0  0  0  0  0  0  0  0  0  0  0
   -7.0256    0.5007    0.0000 N   0  0  0  0  0  0  0  0  0  0  0  0
   -6.4466    1.8844    0.0000 C   0  0  0  0  0  0  0  0  0  0  0  0
   -7.3555    3.0778    0.0000 C   0  0  0  0  0  0  0  0  0  0  0  0
   -6.1167   -0.6926    0.0000 C   0  0  0  0  0  0  0  0  0  0  0  0
   -4.6289   -0.5022    0.0000 C   0  0  0  0  0  0  0  0  0  0  0  0
   -3.7200   -1.6955    0.0000 O   0  0  0  0  0  0  0  0  0  0  0  0
   -2.2322   -1.5050    0.0000 C   0  0  0  0  0  0  0  0  0  0  0  0
   -1.3233   -2.6983    0.0000 C   0  0  0  0  0  0  0  0  0  0  0  0
    0.1646   -2.5079    0.0000 C   0  0  0  0  0  0  0  0  0  0  0  0
    1.0734   -3.7012    0.0000 N   0  0  0  0  0  0  0  0  0  0  0  0
    2.5613   -3.5108    0.0000 C   0  0  0  0  0  0  0  0  0  0  0  0
    3.1403   -2.1270    0.0000 N   0  0  0  0  0  0  0  0  0  0  0  0
    2.2314   -0.9337    0.0000 C   0  0  0  0  0  0  0  0  0  0  0  0
    2.8104    0.4500    0.0000 N   0  0  0  0  0  0  0  0  0  0  0  0
    4.2983    0.6405    0.0000 C   0  0  0  0  0  0  0  0  0  0  0  0
    5.2072   -0.5528    0.0000 C   0  0  0  0  0  0  0  0  0  0  0  0
    6.6950   -0.3624    0.0000 C   0  0  0  0  0  0  0  0  0  0  0  0
    7.2740    1.0214    0.0000 C   0  0  0  0  0  0  0  0  0  0  0  0
    8.7619    1.2118    0.0000 F   0  0  0  0  0  0  0  0  0  0  0  0
    6.3652    2.2147    0.0000 C   0  0  0  0  0  0  0  0  0  0  0  0
    6.9442    3.5984    0.0000 Cl  0  0  0  0  0  0  0  0  0  0  0  0
    4.8773    2.0242    0.0000 C   0  0  0  0  0  0  0  0  0  0  0  0
    0.7436   -1.1241    0.0000 C   0  0  0  0  0  0  0  0  0  0  0  0
   -0.1653    0.0692    0.0000 C   0  0  0  0  0  0  0  0  0  0  0  0
   -1.6532   -0.1213    0.0000 C   0  0  0  0  0  0  0  0  0  0  0  0
   -2.5620    1.0720    0.0000 O   0  0  0  0  0  0  0  0  0  0  0  0
   -1.9830    2.4558    0.0000 C   0  0  0  0  0  0  0  0  0  0  0  0
  1  2  1  0
  2  3  1  0
  3  4  1  0
  4  5  1  0
  3  6  1  0
  6  7  1  0
  7  8  1  0
  8  9  1  0
  9 10  2  0
 10 11  1  0
 11 12  2  0
 12 13  1  0
 13 14  2  0
 14 15  1  0
 15 16  1  0
 16 17  1  0
 17 18  1  0
 18 19  2  0
 19 20  1  0
 20 21  1  0
 20 22  2  0
 22 23  1  0
 22 24  1  0
 15 25  2  0
 25 26  1  0
 26 27  2  0
 27 28  1  0
 28 29  1  0
 27  9  1  0
 25 11  1  0
 24 17  2  0
M  END
>  <ChEMBL_ID>  (170) 
CHEMBL2018765

>  <SMILES>  (170) 
CCN(CC)CCOc1cc2ncnc(Nc3ccc(F)c(Cl)c3)c2cc1OC

>  <MPO_Hit_Score>  (170) 
0.39219999999999999

>  <Tanimoto_to_Gefitinib>  (170) 
0.6522

>  <MolecularWeight>  (170) 
418.89999999999998

>  <LogP>  (170) 
4.9000000000000004

>  <TPSA>  (170) 
59.509999999999998

$$$$
CHEMBL385471
     RDKit          2D

 30 33  0  0  0  0  0  0  0  0999 V2000
   -3.9243   -3.4529    0.0000 C   0  0  0  0  0  0  0  0  0  0  0  0
   -2.5849   -4.1281    0.0000 O   0  0  0  0  0  0  0  0  0  0  0  0
   -1.3304   -3.3057    0.0000 C   0  0  0  0  0  0  0  0  0  0  0  0
    0.0090   -3.9809    0.0000 C   0  0  0  0  0  0  0  0  0  0  0  0
    1.2635   -3.1585    0.0000 C   0  0  0  0  0  0  0  0  0  0  0  0
    2.6029   -3.8337    0.0000 N   0  0  0  0  0  0  0  0  0  0  0  0
    3.8574   -3.0113    0.0000 C   0  0  0  0  0  0  0  0  0  0  0  0
    3.7724   -1.5137    0.0000 N   0  0  0  0  0  0  0  0  0  0  0  0
    2.4330   -0.8385    0.0000 C   0  0  0  0  0  0  0  0  0  0  0  0
    2.3480    0.6591    0.0000 N   0  0  0  0  0  0  0  0  0  0  0  0
    3.6025    1.4815    0.0000 C   0  0  0  0  0  0  0  0  0  0  0  0
    4.9419    0.8062    0.0000 C   0  0  0  0  0  0  0  0  0  0  0  0
    6.1964    1.6286    0.0000 C   0  0  0  0  0  0  0  0  0  0  0  0
    7.5358    0.9534    0.0000 Cl  0  0  0  0  0  0  0  0  0  0  0  0
    6.1114    3.1262    0.0000 C   0  0  0  0  0  0  0  0  0  0  0  0
    4.7720    3.8014    0.0000 C   0  0  0  0  0  0  0  0  0  0  0  0
    3.5175    2.9790    0.0000 C   0  0  0  0  0  0  0  0  0  0  0  0
    2.1781    3.6543    0.0000 F   0  0  0  0  0  0  0  0  0  0  0  0
    1.1785   -1.6609    0.0000 C   0  0  0  0  0  0  0  0  0  0  0  0
   -0.1609   -0.9857    0.0000 C   0  0  0  0  0  0  0  0  0  0  0  0
   -1.4154   -1.8081    0.0000 C   0  0  0  0  0  0  0  0  0  0  0  0
   -2.7548   -1.1329    0.0000 O   0  0  0  0  0  0  0  0  0  0  0  0
   -2.8398    0.3647    0.0000 C   0  0  0  0  0  0  0  0  0  0  0  0
   -4.1792    1.0399    0.0000 C   0  0  0  0  0  0  0  0  0  0  0  0
   -4.2642    2.5375    0.0000 C   0  0  0  0  0  0  0  0  0  0  0  0
   -5.6037    3.2127    0.0000 C   0  0  0  0  0  0  0  0  0  0  0  0
   -6.8581    2.3903    0.0000 N   0  0  0  0  0  0  0  0  0  0  0  0
   -8.1976    3.0655    0.0000 C   0  0  0  0  0  0  0  0  0  0  0  0
   -6.7731    0.8927    0.0000 C   0  0  0  0  0  0  0  0  0  0  0  0
   -5.4337    0.2175    0.0000 C   0  0  0  0  0  0  0  0  0  0  0  0
  1  2  1  0
  2  3  1  0
  3  4  2  0
  4  5  1  0
  5  6  2  0
  6  7  1  0
  7  8  2  0
  8  9  1  0
  9 10  1  0
 10 11  1  0
 11 12  1  0
 12 13  2  0
 13 14  1  0
 13 15  1  0
 15 16  2  0
 16 17  1  0
 17 18  1  0
  9 19  2  0
 19 20  1  0
 20 21  2  0
 21 22  1  0
 22 23  1  0
 23 24  1  0
 24 25  1  0
 25 26  1  0
 26 27  1  0
 27 28  1  0
 27 29  1  0
 29 30  1  0
 21  3  1  0
 19  5  1  0
 17 11  2  0
 30 24  1  0
M  END
>  <ChEMBL_ID>  (171) 
CHEMBL385471

>  <SMILES>  (171) 
COc1cc2ncnc(Nc3cc(Cl)ccc3F)c2cc1OCC1CCN(C)CC1

>  <MPO_Hit_Score>  (171) 
0.3911

>  <Tanimoto_to_Gefitinib>  (171) 
0.5

>  <MolecularWeight>  (171) 
430.91000000000003

>  <LogP>  (171) 
4.9000000000000004

>  <TPSA>  (171) 
59.509999999999998

$$$$
CHEMBL3612574
     RDKit          2D

 31 34  0  0  0  0  0  0  0  0999 V2000
    3.0094    2.7413    0.0000 C   0  0  0  0  0  0  0  0  0  0  0  0
    1.9283    3.7811    0.0000 C   0  0  0  0  0  0  0  0  0  0  0  0
    0.4872    3.3648    0.0000 O   0  0  0  0  0  0  0  0  0  0  0  0
   -0.5939    4.4046    0.0000 C   0  0  0  0  0  0  0  0  0  0  0  0
   -0.2339    5.8608    0.0000 O   0  0  0  0  0  0  0  0  0  0  0  0
   -2.0349    3.9882    0.0000 C   0  0  0  0  0  0  0  0  0  0  0  0
   -2.3949    2.5321    0.0000 C   0  0  0  0  0  0  0  0  0  0  0  0
   -3.8360    2.1157    0.0000 C   0  0  0  0  0  0  0  0  0  0  0  0
   -4.1959    0.6596    0.0000 N   0  0  0  0  0  0  0  0  0  0  0  0
   -5.5856    0.0949    0.0000 C   0  0  0  0  0  0  0  0  0  0  0  0
   -6.8592    0.8872    0.0000 O   0  0  0  0  0  0  0  0  0  0  0  0
   -5.4779   -1.4013    0.0000 O   0  0  0  0  0  0  0  0  0  0  0  0
   -4.0218   -1.7612    0.0000 C   0  0  0  0  0  0  0  0  0  0  0  0
   -3.3149   -3.0842    0.0000 C   0  0  0  0  0  0  0  0  0  0  0  0
   -1.8157   -3.1336    0.0000 C   0  0  0  0  0  0  0  0  0  0  0  0
   -1.1089   -4.4566    0.0000 N   0  0  0  0  0  0  0  0  0  0  0  0
    0.3903   -4.5059    0.0000 C   0  0  0  0  0  0  0  0  0  0  0  0
    1.1826   -3.2323    0.0000 N   0  0  0  0  0  0  0  0  0  0  0  0
    0.4758   -1.9093    0.0000 C   0  0  0  0  0  0  0  0  0  0  0  0
    1.2681   -0.6356    0.0000 N   0  0  0  0  0  0  0  0  0  0  0  0
    2.7673   -0.6850    0.0000 C   0  0  0  0  0  0  0  0  0  0  0  0
    3.4742   -2.0080    0.0000 C   0  0  0  0  0  0  0  0  0  0  0  0
    4.9733   -2.0573    0.0000 C   0  0  0  0  0  0  0  0  0  0  0  0
    5.7657   -0.7837    0.0000 C   0  0  0  0  0  0  0  0  0  0  0  0
    7.2649   -0.8330    0.0000 F   0  0  0  0  0  0  0  0  0  0  0  0
    5.0588    0.5394    0.0000 C   0  0  0  0  0  0  0  0  0  0  0  0
    5.8512    1.8130    0.0000 Cl  0  0  0  0  0  0  0  0  0  0  0  0
    3.5596    0.5887    0.0000 C   0  0  0  0  0  0  0  0  0  0  0  0
   -1.0234   -1.8599    0.0000 C   0  0  0  0  0  0  0  0  0  0  0  0
   -1.7303   -0.5369    0.0000 C   0  0  0  0  0  0  0  0  0  0  0  0
   -3.2295   -0.4876    0.0000 C   0  0  0  0  0  0  0  0  0  0  0  0
  1  2  1  0
  2  3  1  0
  3  4  1  0
  4  5  2  0
  4  6  1  0
  6  7  1  0
  7  8  1  0
  8  9  1  0
  9 10  1  0
 10 11  2  0
 10 12  1  0
 12 13  1  0
 13 14  2  0
 14 15  1  0
 15 16  2  0
 16 17  1  0
 17 18  2  0
 18 19  1  0
 19 20  1  0
 20 21  1  0
 21 22  1  0
 22 23  2  0
 23 24  1  0
 24 25  1  0
 24 26  2  0
 26 27  1  0
 26 28  1  0
 19 29  2  0
 29 30  1  0
 30 31  2  0
 31  9  1  0
 31 13  1  0
 29 15  1  0
 28 21  2  0
M  END
>  <ChEMBL_ID>  (172) 
CHEMBL3612574

>  <SMILES>  (172) 
CCOC(=O)CCCn1c(=O)oc2cc3ncnc(Nc4ccc(F)c(Cl)c4)c3cc21

>  <MPO_Hit_Score>  (172) 
0.39040000000000002

>  <Tanimoto_to_Gefitinib>  (172) 
0.44829999999999998

>  <MolecularWeight>  (172) 
444.85000000000002

>  <LogP>  (172) 
4.4199999999999999

>  <TPSA>  (172) 
99.25

$$$$
CHEMBL3814956
     RDKit          2D

 31 34  0  0  0  0  0  0  0  0999 V2000
    9.5420   -2.5617    0.0000 F   0  0  0  0  0  0  0  0  0  0  0  0
    8.1111   -2.1117    0.0000 C   0  0  0  0  0  0  0  0  0  0  0  0
    7.0059   -3.1258    0.0000 C   0  0  0  0  0  0  0  0  0  0  0  0
    5.5750   -2.6758    0.0000 C   0  0  0  0  0  0  0  0  0  0  0  0
    5.2493   -1.2116    0.0000 C   0  0  0  0  0  0  0  0  0  0  0  0
    3.8184   -0.7616    0.0000 N   0  0  0  0  0  0  0  0  0  0  0  0
    3.4926    0.7026    0.0000 C   0  0  0  0  0  0  0  0  0  0  0  0
    4.5978    1.7168    0.0000 N   0  0  0  0  0  0  0  0  0  0  0  0
    4.2721    3.1810    0.0000 C   0  0  0  0  0  0  0  0  0  0  0  0
    2.8412    3.6310    0.0000 N   0  0  0  0  0  0  0  0  0  0  0  0
    1.7360    2.6168    0.0000 C   0  0  0  0  0  0  0  0  0  0  0  0
    0.3051    3.0669    0.0000 C   0  0  0  0  0  0  0  0  0  0  0  0
   -0.8001    2.0527    0.0000 C   0  0  0  0  0  0  0  0  0  0  0  0
   -0.4743    0.5885    0.0000 C   0  0  0  0  0  0  0  0  0  0  0  0
   -1.5795   -0.4257    0.0000 N   0  0  0  0  0  0  0  0  0  0  0  0
   -3.0104    0.0243    0.0000 C   0  0  0  0  0  0  0  0  0  0  0  0
   -3.3361    1.4885    0.0000 O   0  0  0  0  0  0  0  0  0  0  0  0
   -4.1156   -0.9899    0.0000 N   0  0  0  0  0  0  0  0  0  0  0  0
   -5.5465   -0.5399    0.0000 C   0  0  0  0  0  0  0  0  0  0  0  0
   -6.6517   -1.5541    0.0000 C   0  0  0  0  0  0  0  0  0  0  0  0
   -8.0826   -1.1040    0.0000 N   0  0  0  0  0  0  0  0  0  0  0  0
   -8.4083    0.3602    0.0000 C   0  0  0  0  0  0  0  0  0  0  0  0
   -9.8392    0.8102    0.0000 C   0  0  0  0  0  0  0  0  0  0  0  0
  -10.9444   -0.2040    0.0000 C   0  0  0  0  0  0  0  0  0  0  0  0
  -10.6187   -1.6682    0.0000 C   0  0  0  0  0  0  0  0  0  0  0  0
   -9.1878   -2.1182    0.0000 C   0  0  0  0  0  0  0  0  0  0  0  0
    0.9566    0.1384    0.0000 C   0  0  0  0  0  0  0  0  0  0  0  0
    2.0617    1.1526    0.0000 C   0  0  0  0  0  0  0  0  0  0  0  0
    6.3545   -0.1974    0.0000 C   0  0  0  0  0  0  0  0  0  0  0  0
    7.7854   -0.6475    0.0000 C   0  0  0  0  0  0  0  0  0  0  0  0
    8.8905    0.3667    0.0000 Cl  0  0  0  0  0  0  0  0  0  0  0  0
  1  2  1  0
  2  3  1  0
  3  4  2  0
  4  5  1  0
  5  6  1  0
  6  7  1  0
  7  8  1  0
  8  9  2  0
  9 10  1  0
 10 11  2  0
 11 12  1  0
 12 13  2  0
 13 14  1  0
 14 15  1  0
 15 16  1  0
 16 17  2  0
 16 18  1  0
 18 19  1  0
 19 20  1  0
 20 21  1  0
 21 22  1  0
 22 23  1  0
 23 24  1  0
 24 25  1  0
 25 26  1  0
 14 27  2  0
 27 28  1  0
  5 29  2  0
 29 30  1  0
 30 31  1  0
 30  2  2  0
 28  7  2  0
 28 11  1  0
 26 21  1  0
M  END
>  <ChEMBL_ID>  (173) 
CHEMBL3814956

>  <SMILES>  (173) 
O=C(NCCN1CCCCC1)Nc1ccc2ncnc(Nc3ccc(F)c(Cl)c3)c2c1

>  <MPO_Hit_Score>  (173) 
0.38969999999999999

>  <Tanimoto_to_Gefitinib>  (173) 
0.47499999999999998

>  <MolecularWeight>  (173) 
442.93000000000001

>  <LogP>  (173) 
4.7699999999999996

>  <TPSA>  (173) 
82.180000000000007

$$$$
CHEMBL2064394
     RDKit          2D

 38 43  0  0  0  0  0  0  0  0999 V2000
   -8.7143   -0.5508    0.0000 O   0  0  0  0  0  0  0  0  0  0  0  0
   -7.3132   -1.0864    0.0000 C   0  0  0  0  0  0  0  0  0  0  0  0
   -6.9229   -2.5347    0.0000 O   0  0  0  0  0  0  0  0  0  0  0  0
   -5.4249   -2.6111    0.0000 C   0  0  0  0  0  0  0  0  0  0  0  0
   -4.4793   -3.7756    0.0000 C   0  0  0  0  0  0  0  0  0  0  0  0
   -2.9981   -3.5388    0.0000 C   0  0  0  0  0  0  0  0  0  0  0  0
   -2.0525   -4.7033    0.0000 N   0  0  0  0  0  0  0  0  0  0  0  0
   -0.5713   -4.4666    0.0000 C   0  0  0  0  0  0  0  0  0  0  0  0
   -0.0357   -3.0654    0.0000 N   0  0  0  0  0  0  0  0  0  0  0  0
   -0.9813   -1.9010    0.0000 C   0  0  0  0  0  0  0  0  0  0  0  0
   -0.4457   -0.4999    0.0000 N   0  0  0  0  0  0  0  0  0  0  0  0
    1.0356   -0.2632    0.0000 C   0  0  0  0  0  0  0  0  0  0  0  0
    1.9811   -1.4276    0.0000 C   0  0  0  0  0  0  0  0  0  0  0  0
    3.4624   -1.1909    0.0000 C   0  0  0  0  0  0  0  0  0  0  0  0
    3.9980    0.2102    0.0000 C   0  0  0  0  0  0  0  0  0  0  0  0
    5.4792    0.4469    0.0000 O   0  0  0  0  0  0  0  0  0  0  0  0
    6.4248   -0.7175    0.0000 C   0  0  0  0  0  0  0  0  0  0  0  0
    7.9060   -0.4808    0.0000 C   0  0  0  0  0  0  0  0  0  0  0  0
    8.8516   -1.6452    0.0000 C   0  0  0  0  0  0  0  0  0  0  0  0
   10.3328   -1.4085    0.0000 C   0  0  0  0  0  0  0  0  0  0  0  0
   10.8684   -0.0074    0.0000 C   0  0  0  0  0  0  0  0  0  0  0  0
    9.9228    1.1570    0.0000 C   0  0  0  0  0  0  0  0  0  0  0  0
    8.4416    0.9203    0.0000 N   0  0  0  0  0  0  0  0  0  0  0  0
    3.0524    1.3746    0.0000 C   0  0  0  0  0  0  0  0  0  0  0  0
    1.5712    1.1379    0.0000 C   0  0  0  0  0  0  0  0  0  0  0  0
   -2.4625   -2.1377    0.0000 C   0  0  0  0  0  0  0  0  0  0  0  0
   -3.4081   -0.9733    0.0000 C   0  0  0  0  0  0  0  0  0  0  0  0
   -4.8893   -1.2100    0.0000 C   0  0  0  0  0  0  0  0  0  0  0  0
   -6.0563   -0.2677    0.0000 N   0  0  0  0  0  0  0  0  0  0  0  0
   -5.9799    1.2304    0.0000 C   0  0  0  0  0  0  0  0  0  0  0  0
   -4.6443    1.9132    0.0000 C   0  0  0  0  0  0  0  0  0  0  0  0
   -4.5679    3.4113    0.0000 C   0  0  0  0  0  0  0  0  0  0  0  0
   -3.2323    4.0941    0.0000 N   0  0  0  0  0  0  0  0  0  0  0  0
   -1.9732    3.2789    0.0000 C   0  0  0  0  0  0  0  0  0  0  0  0
   -0.6376    3.9617    0.0000 C   0  0  0  0  0  0  0  0  0  0  0  0
   -0.5612    5.4598    0.0000 O   0  0  0  0  0  0  0  0  0  0  0  0
   -1.8203    6.2750    0.0000 C   0  0  0  0  0  0  0  0  0  0  0  0
   -3.1559    5.5922    0.0000 C   0  0  0  0  0  0  0  0  0  0  0  0
  1  2  2  0
  2  3  1  0
  3  4  1  0
  4  5  2  0
  5  6  1  0
  6  7  2  0
  7  8  1  0
  8  9  2  0
  9 10  1  0
 10 11  1  0
 11 12  1  0
 12 13  1  0
 13 14  2  0
 14 15  1  0
 15 16  1  0
 16 17  1  0
 17 18  1  0
 18 19  2  0
 19 20  1  0
 20 21  2  0
 21 22  1  0
 22 23  2  0
 15 24  2  0
 24 25  1  0
 10 26  2  0
 26 27  1  0
 27 28  2  0
 28 29  1  0
 29 30  1  0
 30 31  1  0
 31 32  1  0
 32 33  1  0
 33 34  1  0
 34 35  1  0
 35 36  1  0
 36 37  1  0
 37 38  1  0
 29  2  1  0
 28  4  1  0
 26  6  1  0
 25 12  2  0
 23 18  1  0
 38 33  1  0
M  END
>  <ChEMBL_ID>  (174) 
CHEMBL2064394

>  <SMILES>  (174) 
O=c1oc2cc3ncnc(Nc4ccc(OCc5ccccn5)cc4)c3cc2n1CCCN1CCOCC1

>  <MPO_Hit_Score>  (174) 
0.38850000000000001

>  <Tanimoto_to_Gefitinib>  (174) 
0.41760000000000003

>  <MolecularWeight>  (174) 
512.57000000000005

>  <LogP>  (174) 
3.98

>  <TPSA>  (174) 
107.54000000000001

$$$$
CHEMBL2448065
     RDKit          2D

 30 33  0  0  0  0  0  0  0  0999 V2000
    2.9194    3.0943    0.0000 C   0  0  0  0  0  0  0  0  0  0  0  0
    1.4324    2.8976    0.0000 O   0  0  0  0  0  0  0  0  0  0  0  0
    0.8592    1.5114    0.0000 C   0  0  0  0  0  0  0  0  0  0  0  0
   -0.6278    1.3147    0.0000 C   0  0  0  0  0  0  0  0  0  0  0  0
   -1.2010   -0.0715    0.0000 C   0  0  0  0  0  0  0  0  0  0  0  0
   -2.6880   -0.2682    0.0000 C   0  0  0  0  0  0  0  0  0  0  0  0
   -3.6019    0.9212    0.0000 N   0  0  0  0  0  0  0  0  0  0  0  0
   -5.0890    0.7245    0.0000 C   0  0  0  0  0  0  0  0  0  0  0  0
   -6.0029    1.9140    0.0000 C   0  0  0  0  0  0  0  0  0  0  0  0
   -7.4899    1.7172    0.0000 C   0  0  0  0  0  0  0  0  0  0  0  0
   -8.0631    0.3311    0.0000 C   0  0  0  0  0  0  0  0  0  0  0  0
   -9.5501    0.1344    0.0000 Cl  0  0  0  0  0  0  0  0  0  0  0  0
   -7.1492   -0.8584    0.0000 C   0  0  0  0  0  0  0  0  0  0  0  0
   -5.6621   -0.6617    0.0000 C   0  0  0  0  0  0  0  0  0  0  0  0
   -4.7482   -1.8511    0.0000 F   0  0  0  0  0  0  0  0  0  0  0  0
   -3.2612   -1.6544    0.0000 N   0  0  0  0  0  0  0  0  0  0  0  0
   -2.3473   -2.8439    0.0000 C   0  0  0  0  0  0  0  0  0  0  0  0
   -0.8603   -2.6472    0.0000 N   0  0  0  0  0  0  0  0  0  0  0  0
   -0.2871   -1.2610    0.0000 C   0  0  0  0  0  0  0  0  0  0  0  0
    1.1999   -1.0643    0.0000 C   0  0  0  0  0  0  0  0  0  0  0  0
    1.7731    0.3219    0.0000 C   0  0  0  0  0  0  0  0  0  0  0  0
    3.2601    0.5186    0.0000 O   0  0  0  0  0  0  0  0  0  0  0  0
    4.1740   -0.6708    0.0000 C   0  0  0  0  0  0  0  0  0  0  0  0
    5.6611   -0.4741    0.0000 C   0  0  0  0  0  0  0  0  0  0  0  0
    6.5750   -1.6636    0.0000 C   0  0  0  0  0  0  0  0  0  0  0  0
    8.0620   -1.4669    0.0000 C   0  0  0  0  0  0  0  0  0  0  0  0
    8.6352   -0.0807    0.0000 N   0  0  0  0  0  0  0  0  0  0  0  0
   10.1222    0.1160    0.0000 C   0  0  0  0  0  0  0  0  0  0  0  0
    7.7213    1.1088    0.0000 C   0  0  0  0  0  0  0  0  0  0  0  0
    6.2342    0.9121    0.0000 C   0  0  0  0  0  0  0  0  0  0  0  0
  1  2  1  0
  2  3  1  0
  3  4  2  0
  4  5  1  0
  5  6  2  0
  6  7  1  0
  7  8  1  0
  8  9  1  0
  9 10  2  0
 10 11  1  0
 11 12  1  0
 11 13  2  0
 13 14  1  0
 14 15  1  0
  6 16  1  0
 16 17  2  0
 17 18  1  0
 18 19  2  0
 19 20  1  0
 20 21  2  0
 21 22  1  0
 22 23  1  0
 23 24  1  0
 24 25  1  0
 25 26  1  0
 26 27  1  0
 27 28  1  0
 27 29  1  0
 29 30  1  0
 21  3  1  0
 19  5  1  0
 14  8  2  0
 30 24  1  0
M  END
>  <ChEMBL_ID>  (175) 
CHEMBL2448065

>  <SMILES>  (175) 
COc1cc2c(Nc3ccc(Cl)cc3F)ncnc2cc1OCC1CCN(C)CC1

>  <MPO_Hit_Score>  (175) 
0.38800000000000001

>  <Tanimoto_to_Gefitinib>  (175) 
0.49370000000000003

>  <MolecularWeight>  (175) 
430.91000000000003

>  <LogP>  (175) 
4.9000000000000004

>  <TPSA>  (175) 
59.509999999999998

$$$$
CHEMBL213874
     RDKit          2D

 30 33  0  0  0  0  0  0  0  0999 V2000
   -4.0323   -3.3687    0.0000 C   0  0  0  0  0  0  0  0  0  0  0  0
   -2.7344   -4.1207    0.0000 O   0  0  0  0  0  0  0  0  0  0  0  0
   -1.4342   -3.3728    0.0000 C   0  0  0  0  0  0  0  0  0  0  0  0
   -0.1364   -4.1248    0.0000 C   0  0  0  0  0  0  0  0  0  0  0  0
    1.1638   -3.3768    0.0000 C   0  0  0  0  0  0  0  0  0  0  0  0
    2.4617   -4.1289    0.0000 N   0  0  0  0  0  0  0  0  0  0  0  0
    3.7619   -3.3809    0.0000 C   0  0  0  0  0  0  0  0  0  0  0  0
    3.7643   -1.8809    0.0000 N   0  0  0  0  0  0  0  0  0  0  0  0
    2.4664   -1.1289    0.0000 C   0  0  0  0  0  0  0  0  0  0  0  0
    2.4688    0.3711    0.0000 N   0  0  0  0  0  0  0  0  0  0  0  0
    3.7690    1.1191    0.0000 C   0  0  0  0  0  0  0  0  0  0  0  0
    5.0668    0.3671    0.0000 C   0  0  0  0  0  0  0  0  0  0  0  0
    6.3670    1.1150    0.0000 C   0  0  0  0  0  0  0  0  0  0  0  0
    6.3694    2.6150    0.0000 C   0  0  0  0  0  0  0  0  0  0  0  0
    5.0715    3.3671    0.0000 C   0  0  0  0  0  0  0  0  0  0  0  0
    5.0739    4.8671    0.0000 Cl  0  0  0  0  0  0  0  0  0  0  0  0
    3.7713    2.6191    0.0000 C   0  0  0  0  0  0  0  0  0  0  0  0
    2.4735    3.3711    0.0000 F   0  0  0  0  0  0  0  0  0  0  0  0
    1.1662   -1.8768    0.0000 C   0  0  0  0  0  0  0  0  0  0  0  0
   -0.1317   -1.1248    0.0000 C   0  0  0  0  0  0  0  0  0  0  0  0
   -1.4319   -1.8728    0.0000 C   0  0  0  0  0  0  0  0  0  0  0  0
   -2.7297   -1.1207    0.0000 O   0  0  0  0  0  0  0  0  0  0  0  0
   -2.7274    0.3793    0.0000 C   0  0  0  0  0  0  0  0  0  0  0  0
   -4.0253    1.1313    0.0000 C   0  0  0  0  0  0  0  0  0  0  0  0
   -4.0229    2.6313    0.0000 C   0  0  0  0  0  0  0  0  0  0  0  0
   -5.3208    3.3833    0.0000 C   0  0  0  0  0  0  0  0  0  0  0  0
   -6.6210    2.6354    0.0000 N   0  0  0  0  0  0  0  0  0  0  0  0
   -7.9188    3.3874    0.0000 C   0  0  0  0  0  0  0  0  0  0  0  0
   -6.6233    1.1354    0.0000 C   0  0  0  0  0  0  0  0  0  0  0  0
   -5.3255    0.3833    0.0000 C   0  0  0  0  0  0  0  0  0  0  0  0
  1  2  1  0
  2  3  1  0
  3  4  2  0
  4  5  1  0
  5  6  2  0
  6  7  1  0
  7  8  2  0
  8  9  1  0
  9 10  1  0
 10 11  1  0
 11 12  2  0
 12 13  1  0
 13 14  2  0
 14 15  1  0
 15 16  1  0
 15 17  2  0
 17 18  1  0
  9 19  2  0
 19 20  1  0
 20 21  2  0
 21 22  1  0
 22 23  1  0
 23 24  1  0
 24 25  1  0
 25 26  1  0
 26 27  1  0
 27 28  1  0
 27 29  1  0
 29 30  1  0
 21  3  1  0
 19  5  1  0
 17 11  1  0
 30 24  1  0
M  END
>  <ChEMBL_ID>  (176) 
CHEMBL213874

>  <SMILES>  (176) 
COc1cc2ncnc(Nc3cccc(Cl)c3F)c2cc1OCC1CCN(C)CC1

>  <MPO_Hit_Score>  (176) 
0.38490000000000002

>  <Tanimoto_to_Gefitinib>  (176) 
0.48749999999999999

>  <MolecularWeight>  (176) 
430.91000000000003

>  <LogP>  (176) 
4.9000000000000004

>  <TPSA>  (176) 
59.509999999999998

$$$$
CHEMBL1907763
     RDKit          2D

 30 33  0  0  0  0  0  0  0  0999 V2000
    3.0558    2.9385    0.0000 C   0  0  0  0  0  0  0  0  0  0  0  0
    1.5642    2.7795    0.0000 O   0  0  0  0  0  0  0  0  0  0  0  0
    0.9561    1.4083    0.0000 C   0  0  0  0  0  0  0  0  0  0  0  0
   -0.5354    1.2493    0.0000 C   0  0  0  0  0  0  0  0  0  0  0  0
   -1.1435   -0.1219    0.0000 C   0  0  0  0  0  0  0  0  0  0  0  0
   -2.6351   -0.2809    0.0000 C   0  0  0  0  0  0  0  0  0  0  0  0
   -3.5185    0.9314    0.0000 N   0  0  0  0  0  0  0  0  0  0  0  0
   -5.0101    0.7724    0.0000 C   0  0  0  0  0  0  0  0  0  0  0  0
   -5.8935    1.9846    0.0000 C   0  0  0  0  0  0  0  0  0  0  0  0
   -7.3851    1.8256    0.0000 C   0  0  0  0  0  0  0  0  0  0  0  0
   -7.9932    0.4544    0.0000 C   0  0  0  0  0  0  0  0  0  0  0  0
   -9.4847    0.2954    0.0000 Cl  0  0  0  0  0  0  0  0  0  0  0  0
   -7.1097   -0.7578    0.0000 C   0  0  0  0  0  0  0  0  0  0  0  0
   -5.6182   -0.5988    0.0000 C   0  0  0  0  0  0  0  0  0  0  0  0
   -4.7347   -1.8111    0.0000 F   0  0  0  0  0  0  0  0  0  0  0  0
   -3.2432   -1.6521    0.0000 N   0  0  0  0  0  0  0  0  0  0  0  0
   -2.3597   -2.8643    0.0000 C   0  0  0  0  0  0  0  0  0  0  0  0
   -0.8682   -2.7053    0.0000 N   0  0  0  0  0  0  0  0  0  0  0  0
   -0.2601   -1.3341    0.0000 C   0  0  0  0  0  0  0  0  0  0  0  0
    1.2315   -1.1751    0.0000 C   0  0  0  0  0  0  0  0  0  0  0  0
    1.8396    0.1961    0.0000 C   0  0  0  0  0  0  0  0  0  0  0  0
    3.3311    0.3551    0.0000 O   0  0  0  0  0  0  0  0  0  0  0  0
    4.2146   -0.8572    0.0000 C   0  0  0  0  0  0  0  0  0  0  0  0
    5.7061   -0.6982    0.0000 C   0  0  0  0  0  0  0  0  0  0  0  0
    6.5896   -1.9104    0.0000 C   0  0  0  0  0  0  0  0  0  0  0  0
    8.0812   -1.7514    0.0000 C   0  0  0  0  0  0  0  0  0  0  0  0
    8.6892   -0.3802    0.0000 C   0  0  0  0  0  0  0  0  0  0  0  0
    7.8058    0.8320    0.0000 N   0  0  0  0  0  0  0  0  0  0  0  0
    8.4139    2.2032    0.0000 C   0  0  0  0  0  0  0  0  0  0  0  0
    6.3142    0.6730    0.0000 C   0  0  0  0  0  0  0  0  0  0  0  0
  1  2  1  0
  2  3  1  0
  3  4  2  0
  4  5  1  0
  5  6  2  0
  6  7  1  0
  7  8  1  0
  8  9  1  0
  9 10  2  0
 10 11  1  0
 11 12  1  0
 11 13  2  0
 13 14  1  0
 14 15  1  0
  6 16  1  0
 16 17  2  0
 17 18  1  0
 18 19  2  0
 19 20  1  0
 20 21  2  0
 21 22  1  0
 22 23  1  0
 24 23  1  1
 24 25  1  0
 25 26  1  0
 26 27  1  0
 27 28  1  0
 28 29  1  0
 28 30  1  0
 21  3  1  0
 19  5  1  0
 14  8  2  0
 30 24  1  0
M  END
>  <ChEMBL_ID>  (177) 
CHEMBL1907763

>  <SMILES>  (177) 
COc1cc2c(Nc3ccc(Cl)cc3F)ncnc2cc1OC[C@@H]1CCCN(C)C1

>  <MPO_Hit_Score>  (177) 
0.38190000000000002

>  <Tanimoto_to_Gefitinib>  (177) 
0.48149999999999998

>  <MolecularWeight>  (177) 
430.91000000000003

>  <LogP>  (177) 
4.9000000000000004

>  <TPSA>  (177) 
59.509999999999998

$$$$
CHEMBL25450
     RDKit          2D

 30 33  0  0  0  0  0  0  0  0999 V2000
    3.3649    3.0700    0.0000 C   0  0  0  0  0  0  0  0  0  0  0  0
    1.8830    2.8376    0.0000 O   0  0  0  0  0  0  0  0  0  0  0  0
    1.3434    1.4380    0.0000 C   0  0  0  0  0  0  0  0  0  0  0  0
   -0.1385    1.2055    0.0000 C   0  0  0  0  0  0  0  0  0  0  0  0
   -0.6781   -0.1940    0.0000 C   0  0  0  0  0  0  0  0  0  0  0  0
   -2.1600   -0.4265    0.0000 C   0  0  0  0  0  0  0  0  0  0  0  0
   -3.1023    0.7406    0.0000 N   0  0  0  0  0  0  0  0  0  0  0  0
   -4.5841    0.5081    0.0000 C   0  0  0  0  0  0  0  0  0  0  0  0
   -5.5264    1.6752    0.0000 C   0  0  0  0  0  0  0  0  0  0  0  0
   -4.9868    3.0748    0.0000 F   0  0  0  0  0  0  0  0  0  0  0  0
   -7.0083    1.4428    0.0000 C   0  0  0  0  0  0  0  0  0  0  0  0
   -7.5479    0.0432    0.0000 C   0  0  0  0  0  0  0  0  0  0  0  0
   -9.0298   -0.1893    0.0000 Cl  0  0  0  0  0  0  0  0  0  0  0  0
   -6.6056   -1.1239    0.0000 C   0  0  0  0  0  0  0  0  0  0  0  0
   -5.1238   -0.8914    0.0000 C   0  0  0  0  0  0  0  0  0  0  0  0
   -4.1815   -2.0586    0.0000 F   0  0  0  0  0  0  0  0  0  0  0  0
   -2.6996   -1.8261    0.0000 N   0  0  0  0  0  0  0  0  0  0  0  0
   -1.7574   -2.9932    0.0000 C   0  0  0  0  0  0  0  0  0  0  0  0
   -0.2755   -2.7607    0.0000 N   0  0  0  0  0  0  0  0  0  0  0  0
    0.2641   -1.3612    0.0000 C   0  0  0  0  0  0  0  0  0  0  0  0
    1.7460   -1.1287    0.0000 C   0  0  0  0  0  0  0  0  0  0  0  0
    2.2856    0.2709    0.0000 C   0  0  0  0  0  0  0  0  0  0  0  0
    3.7675    0.5034    0.0000 O   0  0  0  0  0  0  0  0  0  0  0  0
    4.7098   -0.6637    0.0000 C   0  0  0  0  0  0  0  0  0  0  0  0
    6.1916   -0.4313    0.0000 C   0  0  0  0  0  0  0  0  0  0  0  0
    7.1339   -1.5984    0.0000 C   0  0  0  0  0  0  0  0  0  0  0  0
    8.6158   -1.3659    0.0000 C   0  0  0  0  0  0  0  0  0  0  0  0
    9.1554    0.0337    0.0000 N   0  0  0  0  0  0  0  0  0  0  0  0
    8.2131    1.2008    0.0000 C   0  0  0  0  0  0  0  0  0  0  0  0
    6.7313    0.9683    0.0000 C   0  0  0  0  0  0  0  0  0  0  0  0
  1  2  1  0
  2  3  1  0
  3  4  2  0
  4  5  1  0
  5  6  2  0
  6  7  1  0
  7  8  1  0
  8  9  2  0
  9 10  1  0
  9 11  1  0
 11 12  2  0
 12 13  1  0
 12 14  1  0
 14 15  2  0
 15 16  1  0
  6 17  1  0
 17 18  2  0
 18 19  1  0
 19 20  2  0
 20 21  1  0
 21 22  2  0
 22 23  1  0
 23 24  1  0
 24 25  1  0
 25 26  1  0
 26 27  1  0
 27 28  1  0
 28 29  1  0
 29 30  1  0
 22  3  1  0
 20  5  1  0
 15  8  1  0
 30 25  1  0
M  END
>  <ChEMBL_ID>  (178) 
CHEMBL25450

>  <SMILES>  (178) 
COc1cc2c(Nc3c(F)cc(Cl)cc3F)ncnc2cc1OCC1CCNCC1

>  <MPO_Hit_Score>  (178) 
0.38140000000000002

>  <Tanimoto_to_Gefitinib>  (178) 
0.443

>  <MolecularWeight>  (178) 
434.87

>  <LogP>  (178) 
4.6900000000000004

>  <TPSA>  (178) 
68.299999999999997

$$$$
CHEMBL377277
     RDKit          2D

 25 27  0  0  0  0  0  0  0  0999 V2000
    6.6344   -1.6293    0.0000 C   0  0  0  0  0  0  0  0  0  0  0  0
    5.8174   -0.3713    0.0000 O   0  0  0  0  0  0  0  0  0  0  0  0
    4.3195   -0.4499    0.0000 C   0  0  0  0  0  0  0  0  0  0  0  0
    3.5025    0.8081    0.0000 C   0  0  0  0  0  0  0  0  0  0  0  0
    2.0045    0.7295    0.0000 C   0  0  0  0  0  0  0  0  0  0  0  0
    1.1875    1.9875    0.0000 O   0  0  0  0  0  0  0  0  0  0  0  0
    1.8685    3.3240    0.0000 C   0  0  0  0  0  0  0  0  0  0  0  0
    1.0515    4.5820    0.0000 C   0  0  0  0  0  0  0  0  0  0  0  0
    3.3664    3.4026    0.0000 C   0  0  0  0  0  0  0  0  0  0  0  0
    1.3236   -0.6070    0.0000 C   0  0  0  0  0  0  0  0  0  0  0  0
   -0.1743   -0.6856    0.0000 C   0  0  0  0  0  0  0  0  0  0  0  0
   -0.9913    0.5724    0.0000 N   0  0  0  0  0  0  0  0  0  0  0  0
   -2.4893    0.4939    0.0000 C   0  0  0  0  0  0  0  0  0  0  0  0
   -3.3063    1.7518    0.0000 C   0  0  0  0  0  0  0  0  0  0  0  0
   -4.8042    1.6733    0.0000 C   0  0  0  0  0  0  0  0  0  0  0  0
   -5.4852    0.3367    0.0000 C   0  0  0  0  0  0  0  0  0  0  0  0
   -6.9831    0.2582    0.0000 F   0  0  0  0  0  0  0  0  0  0  0  0
   -4.6682   -0.9212    0.0000 C   0  0  0  0  0  0  0  0  0  0  0  0
   -5.3491   -2.2578    0.0000 Cl  0  0  0  0  0  0  0  0  0  0  0  0
   -3.1702   -0.8427    0.0000 C   0  0  0  0  0  0  0  0  0  0  0  0
   -0.8553   -2.0221    0.0000 N   0  0  0  0  0  0  0  0  0  0  0  0
   -0.0383   -3.2801    0.0000 C   0  0  0  0  0  0  0  0  0  0  0  0
    1.4597   -3.2015    0.0000 N   0  0  0  0  0  0  0  0  0  0  0  0
    2.1406   -1.8650    0.0000 C   0  0  0  0  0  0  0  0  0  0  0  0
    3.6385   -1.7864    0.0000 C   0  0  0  0  0  0  0  0  0  0  0  0
  1  2  1  0
  2  3  1  0
  3  4  1  0
  4  5  2  0
  5  6  1  0
  6  7  1  0
  7  8  1  0
  7  9  1  0
  5 10  1  0
 10 11  2  0
 11 12  1  0
 12 13  1  0
 13 14  1  0
 14 15  2  0
 15 16  1  0
 16 17  1  0
 16 18  2  0
 18 19  1  0
 18 20  1  0
 11 21  1  0
 21 22  2  0
 22 23  1  0
 23 24  2  0
 24 25  1  0
 25  3  2  0
 24 10  1  0
 20 13  2  0
M  END
>  <ChEMBL_ID>  (179) 
CHEMBL377277

>  <SMILES>  (179) 
COc1cc(OC(C)C)c2c(Nc3ccc(F)c(Cl)c3)ncnc2c1

>  <MPO_Hit_Score>  (179) 
0.37869999999999998

>  <Tanimoto_to_Gefitinib>  (179) 
0.43419999999999997

>  <MolecularWeight>  (179) 
361.80000000000001

>  <LogP>  (179) 
4.96

>  <TPSA>  (179) 
56.270000000000003

$$$$
CHEMBL422758
     RDKit          2D

 31 34  0  0  0  0  0  0  0  0999 V2000
    3.0318    3.0515    0.0000 C   0  0  0  0  0  0  0  0  0  0  0  0
    1.5491    2.8239    0.0000 O   0  0  0  0  0  0  0  0  0  0  0  0
    1.0049    1.4261    0.0000 C   0  0  0  0  0  0  0  0  0  0  0  0
   -0.4777    1.1985    0.0000 C   0  0  0  0  0  0  0  0  0  0  0  0
   -1.0219   -0.1993    0.0000 C   0  0  0  0  0  0  0  0  0  0  0  0
   -2.5046   -0.4269    0.0000 C   0  0  0  0  0  0  0  0  0  0  0  0
   -3.4430    0.7433    0.0000 N   0  0  0  0  0  0  0  0  0  0  0  0
   -4.9256    0.5157    0.0000 C   0  0  0  0  0  0  0  0  0  0  0  0
   -5.8640    1.6859    0.0000 C   0  0  0  0  0  0  0  0  0  0  0  0
   -5.3198    3.0837    0.0000 F   0  0  0  0  0  0  0  0  0  0  0  0
   -7.3467    1.4583    0.0000 C   0  0  0  0  0  0  0  0  0  0  0  0
   -7.8909    0.0605    0.0000 C   0  0  0  0  0  0  0  0  0  0  0  0
   -9.3735   -0.1671    0.0000 Cl  0  0  0  0  0  0  0  0  0  0  0  0
   -6.9524   -1.1097    0.0000 C   0  0  0  0  0  0  0  0  0  0  0  0
   -5.4698   -0.8821    0.0000 C   0  0  0  0  0  0  0  0  0  0  0  0
   -4.5314   -2.0523    0.0000 F   0  0  0  0  0  0  0  0  0  0  0  0
   -3.0488   -1.8247    0.0000 N   0  0  0  0  0  0  0  0  0  0  0  0
   -2.1103   -2.9949    0.0000 C   0  0  0  0  0  0  0  0  0  0  0  0
   -0.6277   -2.7673    0.0000 N   0  0  0  0  0  0  0  0  0  0  0  0
   -0.0835   -1.3695    0.0000 C   0  0  0  0  0  0  0  0  0  0  0  0
    1.3991   -1.1419    0.0000 C   0  0  0  0  0  0  0  0  0  0  0  0
    1.9433    0.2559    0.0000 C   0  0  0  0  0  0  0  0  0  0  0  0
    3.4260    0.4835    0.0000 O   0  0  0  0  0  0  0  0  0  0  0  0
    4.3644   -0.6867    0.0000 C   0  0  0  0  0  0  0  0  0  0  0  0
    5.8470   -0.4591    0.0000 C   0  0  0  0  0  0  0  0  0  0  0  0
    6.7855   -1.6293    0.0000 C   0  0  0  0  0  0  0  0  0  0  0  0
    8.2681   -1.4017    0.0000 C   0  0  0  0  0  0  0  0  0  0  0  0
    8.8123   -0.0039    0.0000 N   0  0  0  0  0  0  0  0  0  0  0  0
   10.2949    0.2237    0.0000 C   0  0  0  0  0  0  0  0  0  0  0  0
    7.8739    1.1663    0.0000 C   0  0  0  0  0  0  0  0  0  0  0  0
    6.3912    0.9387    0.0000 C   0  0  0  0  0  0  0  0  0  0  0  0
  1  2  1  0
  2  3  1  0
  3  4  2  0
  4  5  1  0
  5  6  2  0
  6  7  1  0
  7  8  1  0
  8  9  2  0
  9 10  1  0
  9 11  1  0
 11 12  2  0
 12 13  1  0
 12 14  1  0
 14 15  2  0
 15 16  1  0
  6 17  1  0
 17 18  2  0
 18 19  1  0
 19 20  2  0
 20 21  1  0
 21 22  2  0
 22 23  1  0
 23 24  1  0
 24 25  1  0
 25 26  1  0
 26 27  1  0
 27 28  1  0
 28 29  1  0
 28 30  1  0
 30 31  1  0
 22  3  1  0
 20  5  1  0
 15  8  1  0
 31 25  1  0
M  END
>  <ChEMBL_ID>  (180) 
CHEMBL422758

>  <SMILES>  (180) 
COc1cc2c(Nc3c(F)cc(Cl)cc3F)ncnc2cc1OCC1CCN(C)CC1

>  <MPO_Hit_Score>  (180) 
0.37859999999999999

>  <Tanimoto_to_Gefitinib>  (180) 
0.49349999999999999

>  <MolecularWeight>  (180) 
448.89999999999998

>  <LogP>  (180) 
5.0300000000000002

>  <TPSA>  (180) 
59.509999999999998

$$$$
CHEMBL3092308
     RDKit          2D

 36 40  0  0  0  0  0  0  0  0999 V2000
    9.9549   -2.5250    0.0000 F   0  0  0  0  0  0  0  0  0  0  0  0
    8.4909   -2.1986    0.0000 C   0  0  0  0  0  0  0  0  0  0  0  0
    7.4761   -3.3032    0.0000 C   0  0  0  0  0  0  0  0  0  0  0  0
    6.0121   -2.9767    0.0000 C   0  0  0  0  0  0  0  0  0  0  0  0
    5.5628   -1.5456    0.0000 C   0  0  0  0  0  0  0  0  0  0  0  0
    4.0987   -1.2191    0.0000 N   0  0  0  0  0  0  0  0  0  0  0  0
    3.6495    0.2120    0.0000 C   0  0  0  0  0  0  0  0  0  0  0  0
    4.6642    1.3167    0.0000 N   0  0  0  0  0  0  0  0  0  0  0  0
    4.2149    2.7478    0.0000 C   0  0  0  0  0  0  0  0  0  0  0  0
    2.7509    3.0743    0.0000 N   0  0  0  0  0  0  0  0  0  0  0  0
    1.7361    1.9696    0.0000 C   0  0  0  0  0  0  0  0  0  0  0  0
    0.2721    2.2961    0.0000 C   0  0  0  0  0  0  0  0  0  0  0  0
   -0.7427    1.1914    0.0000 C   0  0  0  0  0  0  0  0  0  0  0  0
   -2.2067    1.5179    0.0000 O   0  0  0  0  0  0  0  0  0  0  0  0
   -2.6560    2.9490    0.0000 C   0  0  0  0  0  0  0  0  0  0  0  0
   -4.0779    3.4268    0.0000 C   0  0  0  0  0  0  0  0  0  0  0  0
   -4.0629    4.9267    0.0000 C   0  0  0  0  0  0  0  0  0  0  0  0
   -2.6318    5.3760    0.0000 O   0  0  0  0  0  0  0  0  0  0  0  0
   -1.7623    4.1537    0.0000 C   0  0  0  0  0  0  0  0  0  0  0  0
   -0.2934   -0.2397    0.0000 C   0  0  0  0  0  0  0  0  0  0  0  0
   -1.3081   -1.3444    0.0000 N   0  0  0  0  0  0  0  0  0  0  0  0
   -2.7722   -1.0179    0.0000 C   0  0  0  0  0  0  0  0  0  0  0  0
   -3.2215    0.4132    0.0000 O   0  0  0  0  0  0  0  0  0  0  0  0
   -3.7869   -2.1225    0.0000 N   0  0  0  0  0  0  0  0  0  0  0  0
   -5.2510   -1.7961    0.0000 C   0  0  0  0  0  0  0  0  0  0  0  0
   -6.2657   -2.9007    0.0000 C   0  0  0  0  0  0  0  0  0  0  0  0
   -7.7298   -2.5743    0.0000 N   0  0  0  0  0  0  0  0  0  0  0  0
   -8.8544   -3.5668    0.0000 C   0  0  0  0  0  0  0  0  0  0  0  0
  -10.1459   -2.8039    0.0000 C   0  0  0  0  0  0  0  0  0  0  0  0
   -9.8195   -1.3398    0.0000 C   0  0  0  0  0  0  0  0  0  0  0  0
   -8.3262   -1.1979    0.0000 C   0  0  0  0  0  0  0  0  0  0  0  0
    1.1707   -0.5662    0.0000 C   0  0  0  0  0  0  0  0  0  0  0  0
    2.1854    0.5385    0.0000 C   0  0  0  0  0  0  0  0  0  0  0  0
    6.5775   -0.4410    0.0000 C   0  0  0  0  0  0  0  0  0  0  0  0
    8.0416   -0.7674    0.0000 C   0  0  0  0  0  0  0  0  0  0  0  0
    9.0563    0.3372    0.0000 Cl  0  0  0  0  0  0  0  0  0  0  0  0
  1  2  1  0
  2  3  1  0
  3  4  2  0
  4  5  1  0
  5  6  1  0
  6  7  1  0
  7  8  1  0
  8  9  2  0
  9 10  1  0
 10 11  2  0
 11 12  1  0
 12 13  2  0
 13 14  1  0
 15 14  1  1
 15 16  1  0
 16 17  1  0
 17 18  1  0
 18 19  1  0
 13 20  1  0
 20 21  1  0
 21 22  1  0
 22 23  2  0
 22 24  1  0
 24 25  1  0
 25 26  1  0
 26 27  1  0
 27 28  1  0
 28 29  1  0
 29 30  1  0
 30 31  1  0
 20 32  2  0
 32 33  1  0
  5 34  2  0
 34 35  1  0
 35 36  1  0
 35  2  2  0
 33  7  2  0
 33 11  1  0
 19 15  1  0
 31 27  1  0
M  END
>  <ChEMBL_ID>  (181) 
CHEMBL3092308

>  <SMILES>  (181) 
O=C(NCCN1CCCC1)Nc1cc2c(Nc3ccc(F)c(Cl)c3)ncnc2cc1O[C@H]1CCOC1

>  <MPO_Hit_Score>  (181) 
0.37519999999999998

>  <Tanimoto_to_Gefitinib>  (181) 
0.5

>  <MolecularWeight>  (181) 
514.99000000000001

>  <LogP>  (181) 
4.5499999999999998

>  <TPSA>  (181) 
100.64

$$$$
CHEMBL3092315
     RDKit          2D

 35 38  0  0  0  0  0  0  0  0999 V2000
   -5.8063   -6.8343    0.0000 C   0  0  0  0  0  0  0  0  0  0  0  0
   -4.7967   -5.7250    0.0000 N   0  0  0  0  0  0  0  0  0  0  0  0
   -3.3311   -6.0448    0.0000 C   0  0  0  0  0  0  0  0  0  0  0  0
   -5.2525   -4.2960    0.0000 C   0  0  0  0  0  0  0  0  0  0  0  0
   -4.2428   -3.1867    0.0000 C   0  0  0  0  0  0  0  0  0  0  0  0
   -4.6987   -1.7576    0.0000 N   0  0  0  0  0  0  0  0  0  0  0  0
   -6.1642   -1.4379    0.0000 C   0  0  0  0  0  0  0  0  0  0  0  0
   -3.6890   -0.6483    0.0000 C   0  0  0  0  0  0  0  0  0  0  0  0
   -4.1448    0.7808    0.0000 O   0  0  0  0  0  0  0  0  0  0  0  0
   -2.2235   -0.9681    0.0000 N   0  0  0  0  0  0  0  0  0  0  0  0
   -1.2138    0.1412    0.0000 C   0  0  0  0  0  0  0  0  0  0  0  0
    0.2517   -0.1785    0.0000 C   0  0  0  0  0  0  0  0  0  0  0  0
    1.2614    0.9308    0.0000 C   0  0  0  0  0  0  0  0  0  0  0  0
    2.7269    0.6110    0.0000 C   0  0  0  0  0  0  0  0  0  0  0  0
    3.1828   -0.8180    0.0000 N   0  0  0  0  0  0  0  0  0  0  0  0
    4.6483   -1.1378    0.0000 C   0  0  0  0  0  0  0  0  0  0  0  0
    5.1041   -2.5668    0.0000 C   0  0  0  0  0  0  0  0  0  0  0  0
    6.5697   -2.8866    0.0000 C   0  0  0  0  0  0  0  0  0  0  0  0
    7.5793   -1.7773    0.0000 C   0  0  0  0  0  0  0  0  0  0  0  0
    9.0449   -2.0970    0.0000 F   0  0  0  0  0  0  0  0  0  0  0  0
    7.1235   -0.3482    0.0000 C   0  0  0  0  0  0  0  0  0  0  0  0
    8.1332    0.7611    0.0000 Cl  0  0  0  0  0  0  0  0  0  0  0  0
    5.6580   -0.0285    0.0000 C   0  0  0  0  0  0  0  0  0  0  0  0
    3.7366    1.7203    0.0000 N   0  0  0  0  0  0  0  0  0  0  0  0
    3.2808    3.1494    0.0000 C   0  0  0  0  0  0  0  0  0  0  0  0
    1.8152    3.4692    0.0000 N   0  0  0  0  0  0  0  0  0  0  0  0
    0.8056    2.3598    0.0000 C   0  0  0  0  0  0  0  0  0  0  0  0
   -0.6600    2.6796    0.0000 C   0  0  0  0  0  0  0  0  0  0  0  0
   -1.6696    1.5703    0.0000 C   0  0  0  0  0  0  0  0  0  0  0  0
   -3.1352    1.8901    0.0000 O   0  0  0  0  0  0  0  0  0  0  0  0
   -3.5910    3.3191    0.0000 C   0  0  0  0  0  0  0  0  0  0  0  0
   -5.0151    3.7903    0.0000 C   0  0  0  0  0  0  0  0  0  0  0  0
   -5.0070    5.2903    0.0000 C   0  0  0  0  0  0  0  0  0  0  0  0
   -3.5780    5.7461    0.0000 O   0  0  0  0  0  0  0  0  0  0  0  0
   -2.7028    4.5279    0.0000 C   0  0  0  0  0  0  0  0  0  0  0  0
  1  2  1  0
  2  3  1  0
  2  4  1  0
  4  5  1  0
  5  6  1  0
  6  7  1  0
  6  8  1  0
  8  9  2  0
  8 10  1  0
 10 11  1  0
 11 12  2  0
 12 13  1  0
 13 14  2  0
 14 15  1  0
 15 16  1  0
 16 17  1  0
 17 18  2  0
 18 19  1  0
 19 20  1  0
 19 21  2  0
 21 22  1  0
 21 23  1  0
 14 24  1  0
 24 25  2  0
 25 26  1  0
 26 27  2  0
 27 28  1  0
 28 29  2  0
 29 30  1  0
 31 30  1  1
 31 32  1  0
 32 33  1  0
 33 34  1  0
 34 35  1  0
 29 11  1  0
 27 13  1  0
 23 16  2  0
 35 31  1  0
M  END
>  <ChEMBL_ID>  (182) 
CHEMBL3092315

>  <SMILES>  (182) 
CN(C)CCN(C)C(=O)Nc1cc2c(Nc3ccc(F)c(Cl)c3)ncnc2cc1O[C@H]1CCOC1

>  <MPO_Hit_Score>  (182) 
0.37440000000000001

>  <Tanimoto_to_Gefitinib>  (182) 
0.45050000000000001

>  <MolecularWeight>  (182) 
502.98000000000002

>  <LogP>  (182) 
4.3600000000000003

>  <TPSA>  (182) 
91.849999999999994

$$$$
CHEMBL215559
     RDKit          2D

 32 35  0  0  0  0  0  0  0  0999 V2000
  -10.3689    1.4110    0.0000 C   0  0  0  0  0  0  0  0  0  0  0  0
   -9.6897    0.0736    0.0000 O   0  0  0  0  0  0  0  0  0  0  0  0
   -8.1919   -0.0069    0.0000 C   0  0  0  0  0  0  0  0  0  0  0  0
   -7.5127   -1.3443    0.0000 C   0  0  0  0  0  0  0  0  0  0  0  0
   -6.0148   -1.4248    0.0000 N   0  0  0  0  0  0  0  0  0  0  0  0
   -5.1962   -0.1679    0.0000 C   0  0  0  0  0  0  0  0  0  0  0  0
   -3.6983   -0.2484    0.0000 C   0  0  0  0  0  0  0  0  0  0  0  0
   -3.0191   -1.5858    0.0000 C   0  0  0  0  0  0  0  0  0  0  0  0
   -3.8378   -2.8428    0.0000 C   0  0  0  0  0  0  0  0  0  0  0  0
   -5.3356   -2.7623    0.0000 C   0  0  0  0  0  0  0  0  0  0  0  0
   -1.5213   -1.6663    0.0000 O   0  0  0  0  0  0  0  0  0  0  0  0
   -0.7027   -0.4094    0.0000 C   0  0  0  0  0  0  0  0  0  0  0  0
    0.7952   -0.4899    0.0000 C   0  0  0  0  0  0  0  0  0  0  0  0
    1.6138    0.7670    0.0000 C   0  0  0  0  0  0  0  0  0  0  0  0
    3.1116    0.6865    0.0000 C   0  0  0  0  0  0  0  0  0  0  0  0
    3.7908   -0.6509    0.0000 N   0  0  0  0  0  0  0  0  0  0  0  0
    5.2887   -0.7314    0.0000 C   0  0  0  0  0  0  0  0  0  0  0  0
    5.9679   -2.0688    0.0000 C   0  0  0  0  0  0  0  0  0  0  0  0
    7.4657   -2.1493    0.0000 C   0  0  0  0  0  0  0  0  0  0  0  0
    8.1449   -3.4868    0.0000 Cl  0  0  0  0  0  0  0  0  0  0  0  0
    8.2844   -0.8924    0.0000 C   0  0  0  0  0  0  0  0  0  0  0  0
    7.6052    0.4450    0.0000 C   0  0  0  0  0  0  0  0  0  0  0  0
    6.1073    0.5255    0.0000 C   0  0  0  0  0  0  0  0  0  0  0  0
    5.4281    1.8629    0.0000 F   0  0  0  0  0  0  0  0  0  0  0  0
    3.9303    1.9434    0.0000 N   0  0  0  0  0  0  0  0  0  0  0  0
    3.2511    3.2808    0.0000 C   0  0  0  0  0  0  0  0  0  0  0  0
    1.7532    3.3613    0.0000 N   0  0  0  0  0  0  0  0  0  0  0  0
    0.9346    2.1044    0.0000 C   0  0  0  0  0  0  0  0  0  0  0  0
   -0.5632    2.1849    0.0000 C   0  0  0  0  0  0  0  0  0  0  0  0
   -1.3819    0.9280    0.0000 C   0  0  0  0  0  0  0  0  0  0  0  0
   -2.8797    1.0085    0.0000 O   0  0  0  0  0  0  0  0  0  0  0  0
   -3.5589    2.3459    0.0000 C   0  0  0  0  0  0  0  0  0  0  0  0
  1  2  1  0
  2  3  1  0
  3  4  1  0
  4  5  1  0
  5  6  1  0
  6  7  1  0
  7  8  1  0
  8  9  1  0
  9 10  1  0
  8 11  1  0
 11 12  1  0
 12 13  2  0
 13 14  1  0
 14 15  2  0
 15 16  1  0
 16 17  1  0
 17 18  1  0
 18 19  2  0
 19 20  1  0
 19 21  1  0
 21 22  2  0
 22 23  1  0
 23 24  1  0
 15 25  1  0
 25 26  2  0
 26 27  1  0
 27 28  2  0
 28 29  1  0
 29 30  2  0
 30 31  1  0
 31 32  1  0
 10  5  1  0
 30 12  1  0
 28 14  1  0
 23 17  2  0
M  END
>  <ChEMBL_ID>  (183) 
CHEMBL215559

>  <SMILES>  (183) 
COCCN1CCC(Oc2cc3c(Nc4cc(Cl)ccc4F)ncnc3cc2OC)CC1

>  <MPO_Hit_Score>  (183) 
0.36930000000000002

>  <Tanimoto_to_Gefitinib>  (183) 
0.51249999999999996

>  <MolecularWeight>  (183) 
460.94

>  <LogP>  (183) 
4.6600000000000001

>  <TPSA>  (183) 
68.739999999999995

$$$$
CHEMBL2333991
     RDKit          2D

 27 30  0  0  0  0  0  0  0  0999 V2000
   -6.9971    2.6331    0.0000 C   0  0  0  0  0  0  0  0  0  0  0  0
   -6.8004    1.1461    0.0000 O   0  0  0  0  0  0  0  0  0  0  0  0
   -5.4142    0.5728    0.0000 C   0  0  0  0  0  0  0  0  0  0  0  0
   -5.2176   -0.9142    0.0000 C   0  0  0  0  0  0  0  0  0  0  0  0
   -3.8314   -1.4874    0.0000 C   0  0  0  0  0  0  0  0  0  0  0  0
   -3.6347   -2.9745    0.0000 N   0  0  0  0  0  0  0  0  0  0  0  0
   -2.2486   -3.5477    0.0000 C   0  0  0  0  0  0  0  0  0  0  0  0
   -1.0591   -2.6338    0.0000 N   0  0  0  0  0  0  0  0  0  0  0  0
   -1.2557   -1.1468    0.0000 C   0  0  0  0  0  0  0  0  0  0  0  0
   -0.0663   -0.2329    0.0000 N   0  0  0  0  0  0  0  0  0  0  0  0
    1.3199   -0.8061    0.0000 C   0  0  0  0  0  0  0  0  0  0  0  0
    1.5166   -2.2932    0.0000 C   0  0  0  0  0  0  0  0  0  0  0  0
    2.9027   -2.8664    0.0000 C   0  0  0  0  0  0  0  0  0  0  0  0
    4.0922   -1.9525    0.0000 C   0  0  0  0  0  0  0  0  0  0  0  0
    3.8955   -0.4655    0.0000 C   0  0  0  0  0  0  0  0  0  0  0  0
    2.5094    0.1077    0.0000 C   0  0  0  0  0  0  0  0  0  0  0  0
    5.0850    0.4484    0.0000 C   0  0  0  0  0  0  0  0  0  0  0  0
    6.4712   -0.1248    0.0000 C   0  0  0  0  0  0  0  0  0  0  0  0
    7.6607    0.7890    0.0000 C   0  0  0  0  0  0  0  0  0  0  0  0
    7.4640    2.2761    0.0000 C   0  0  0  0  0  0  0  0  0  0  0  0
    6.0779    2.8493    0.0000 C   0  0  0  0  0  0  0  0  0  0  0  0
    4.8884    1.9354    0.0000 C   0  0  0  0  0  0  0  0  0  0  0  0
   -2.6419   -0.5736    0.0000 C   0  0  0  0  0  0  0  0  0  0  0  0
   -2.8386    0.9135    0.0000 C   0  0  0  0  0  0  0  0  0  0  0  0
   -4.2247    1.4867    0.0000 C   0  0  0  0  0  0  0  0  0  0  0  0
   -4.4214    2.9737    0.0000 O   0  0  0  0  0  0  0  0  0  0  0  0
   -3.2319    3.8876    0.0000 C   0  0  0  0  0  0  0  0  0  0  0  0
  1  2  1  0
  2  3  1  0
  3  4  2  0
  4  5  1  0
  5  6  2  0
  6  7  1  0
  7  8  2  0
  8  9  1  0
  9 10  1  0
 10 11  1  0
 11 12  1  0
 12 13  2  0
 13 14  1  0
 14 15  2  0
 15 16  1  0
 15 17  1  0
 17 18  2  0
 18 19  1  0
 19 20  2  0
 20 21  1  0
 21 22  2  0
  9 23  2  0
 23 24  1  0
 24 25  2  0
 25 26  1  0
 26 27  1  0
 25  3  1  0
 23  5  1  0
 16 11  2  0
 22 17  1  0
M  END
>  <ChEMBL_ID>  (184) 
CHEMBL2333991

>  <SMILES>  (184) 
COc1cc2ncnc(Nc3cccc(-c4ccccc4)c3)c2cc1OC

>  <MPO_Hit_Score>  (184) 
0.36930000000000002

>  <Tanimoto_to_Gefitinib>  (184) 
0.42859999999999998

>  <MolecularWeight>  (184) 
357.41000000000003

>  <LogP>  (184) 
5.0599999999999996

>  <TPSA>  (184) 
56.270000000000003

$$$$
CHEMBL2447950
     RDKit          2D

 24 26  0  0  0  0  0  0  0  0999 V2000
   -7.2405    0.5709    0.0000 C   0  0  0  0  0  0  0  0  0  0  0  0
   -5.7407    0.5423    0.0000 C   0  0  0  0  0  0  0  0  0  0  0  0
   -5.0156   -0.7708    0.0000 O   0  0  0  0  0  0  0  0  0  0  0  0
   -3.5158   -0.7993    0.0000 C   0  0  0  0  0  0  0  0  0  0  0  0
   -2.7907   -2.1124    0.0000 C   0  0  0  0  0  0  0  0  0  0  0  0
   -1.2910   -2.1409    0.0000 C   0  0  0  0  0  0  0  0  0  0  0  0
   -0.5658   -3.4540    0.0000 N   0  0  0  0  0  0  0  0  0  0  0  0
    0.9339   -3.4825    0.0000 C   0  0  0  0  0  0  0  0  0  0  0  0
    1.7085   -2.1980    0.0000 N   0  0  0  0  0  0  0  0  0  0  0  0
    0.9833   -0.8849    0.0000 C   0  0  0  0  0  0  0  0  0  0  0  0
    1.7579    0.3996    0.0000 N   0  0  0  0  0  0  0  0  0  0  0  0
    3.2576    0.3711    0.0000 C   0  0  0  0  0  0  0  0  0  0  0  0
    3.9828   -0.9420    0.0000 C   0  0  0  0  0  0  0  0  0  0  0  0
    5.4825   -0.9705    0.0000 C   0  0  0  0  0  0  0  0  0  0  0  0
    6.2571    0.3140    0.0000 C   0  0  0  0  0  0  0  0  0  0  0  0
    5.5320    1.6271    0.0000 C   0  0  0  0  0  0  0  0  0  0  0  0
    6.3065    2.9116    0.0000 Cl  0  0  0  0  0  0  0  0  0  0  0  0
    4.0322    1.6556    0.0000 C   0  0  0  0  0  0  0  0  0  0  0  0
   -0.5164   -0.8564    0.0000 C   0  0  0  0  0  0  0  0  0  0  0  0
   -1.2415    0.4567    0.0000 C   0  0  0  0  0  0  0  0  0  0  0  0
   -2.7413    0.4852    0.0000 C   0  0  0  0  0  0  0  0  0  0  0  0
   -3.4664    1.7983    0.0000 O   0  0  0  0  0  0  0  0  0  0  0  0
   -2.6918    3.0829    0.0000 C   0  0  0  0  0  0  0  0  0  0  0  0
   -3.4170    4.3959    0.0000 C   0  0  0  0  0  0  0  0  0  0  0  0
  1  2  1  0
  2  3  1  0
  3  4  1  0
  4  5  2  0
  5  6  1  0
  6  7  2  0
  7  8  1  0
  8  9  2  0
  9 10  1  0
 10 11  1  0
 11 12  1  0
 12 13  2  0
 13 14  1  0
 14 15  2  0
 15 16  1  0
 16 17  1  0
 16 18  2  0
 10 19  2  0
 19 20  1  0
 20 21  2  0
 21 22  1  0
 22 23  1  0
 23 24  1  0
 21  4  1  0
 19  6  1  0
 18 12  1  0
M  END
>  <ChEMBL_ID>  (185) 
CHEMBL2447950

>  <SMILES>  (185) 
CCOc1cc2ncnc(Nc3cccc(Cl)c3)c2cc1OCC

>  <MPO_Hit_Score>  (185) 
0.36919999999999997

>  <Tanimoto_to_Gefitinib>  (185) 
0.44290000000000002

>  <MolecularWeight>  (185) 
343.81

>  <LogP>  (185) 
4.8200000000000003

>  <TPSA>  (185) 
56.270000000000003

$$$$
CHEMBL2018753
     RDKit          2D

 29 31  0  0  0  0  0  0  0  0999 V2000
   -7.9126    4.1731    0.0000 C   0  0  0  0  0  0  0  0  0  0  0  0
   -6.7776    3.1924    0.0000 C   0  0  0  0  0  0  0  0  0  0  0  0
   -7.0594    1.7191    0.0000 C   0  0  0  0  0  0  0  0  0  0  0  0
   -5.9244    0.7384    0.0000 O   0  0  0  0  0  0  0  0  0  0  0  0
   -6.2063   -0.7349    0.0000 C   0  0  0  0  0  0  0  0  0  0  0  0
   -7.6231   -1.2275    0.0000 O   0  0  0  0  0  0  0  0  0  0  0  0
   -5.0713   -1.7156    0.0000 N   0  0  0  0  0  0  0  0  0  0  0  0
   -3.6545   -1.2231    0.0000 C   0  0  0  0  0  0  0  0  0  0  0  0
   -3.3726    0.2502    0.0000 C   0  0  0  0  0  0  0  0  0  0  0  0
   -1.9558    0.7428    0.0000 C   0  0  0  0  0  0  0  0  0  0  0  0
   -0.8208   -0.2379    0.0000 C   0  0  0  0  0  0  0  0  0  0  0  0
    0.5960    0.2546    0.0000 N   0  0  0  0  0  0  0  0  0  0  0  0
    1.7310   -0.7261    0.0000 C   0  0  0  0  0  0  0  0  0  0  0  0
    1.4491   -2.1994    0.0000 N   0  0  0  0  0  0  0  0  0  0  0  0
    2.5841   -3.1801    0.0000 C   0  0  0  0  0  0  0  0  0  0  0  0
    4.0009   -2.6875    0.0000 N   0  0  0  0  0  0  0  0  0  0  0  0
    4.2828   -1.2143    0.0000 C   0  0  0  0  0  0  0  0  0  0  0  0
    5.6996   -0.7217    0.0000 C   0  0  0  0  0  0  0  0  0  0  0  0
    5.9814    0.7516    0.0000 C   0  0  0  0  0  0  0  0  0  0  0  0
    7.3983    1.2441    0.0000 O   0  0  0  0  0  0  0  0  0  0  0  0
    8.5332    0.2634    0.0000 C   0  0  0  0  0  0  0  0  0  0  0  0
    4.8465    1.7323    0.0000 C   0  0  0  0  0  0  0  0  0  0  0  0
    5.1283    3.2056    0.0000 O   0  0  0  0  0  0  0  0  0  0  0  0
    3.9933    4.1863    0.0000 C   0  0  0  0  0  0  0  0  0  0  0  0
    3.4296    1.2397    0.0000 C   0  0  0  0  0  0  0  0  0  0  0  0
    3.1478   -0.2335    0.0000 C   0  0  0  0  0  0  0  0  0  0  0  0
   -1.1027   -1.7112    0.0000 C   0  0  0  0  0  0  0  0  0  0  0  0
   -2.5195   -2.2038    0.0000 C   0  0  0  0  0  0  0  0  0  0  0  0
   -2.8013   -3.6771    0.0000 Cl  0  0  0  0  0  0  0  0  0  0  0  0
  1  2  1  0
  2  3  1  0
  3  4  1  0
  4  5  1  0
  5  6  2  0
  5  7  1  0
  7  8  1  0
  8  9  1  0
  9 10  2  0
 10 11  1  0
 11 12  1  0
 12 13  1  0
 13 14  1  0
 14 15  2  0
 15 16  1  0
 16 17  2  0
 17 18  1  0
 18 19  2  0
 19 20  1  0
 20 21  1  0
 19 22  1  0
 22 23  1  0
 23 24  1  0
 22 25  2  0
 25 26  1  0
 11 27  2  0
 27 28  1  0
 28 29  1  0
 28  8  2  0
 26 13  2  0
 26 17  1  0
M  END
>  <ChEMBL_ID>  (186) 
CHEMBL2018753

>  <SMILES>  (186) 
CCCOC(=O)Nc1ccc(Nc2ncnc3cc(OC)c(OC)cc23)cc1Cl

>  <MPO_Hit_Score>  (186) 
0.36559999999999998

>  <Tanimoto_to_Gefitinib>  (186) 
0.51349999999999996

>  <MolecularWeight>  (186) 
416.87

>  <LogP>  (186) 
5

>  <TPSA>  (186) 
94.599999999999994

$$$$
CHEMBL3221258
     RDKit          2D

 29 31  0  0  0  0  0  0  0  0999 V2000
   -7.9126    4.1731    0.0000 C   0  0  0  0  0  0  0  0  0  0  0  0
   -6.7776    3.1924    0.0000 C   0  0  0  0  0  0  0  0  0  0  0  0
   -7.0594    1.7191    0.0000 C   0  0  0  0  0  0  0  0  0  0  0  0
   -5.9244    0.7384    0.0000 O   0  0  0  0  0  0  0  0  0  0  0  0
   -6.2063   -0.7349    0.0000 C   0  0  0  0  0  0  0  0  0  0  0  0
   -7.6231   -1.2275    0.0000 O   0  0  0  0  0  0  0  0  0  0  0  0
   -5.0713   -1.7156    0.0000 N   0  0  0  0  0  0  0  0  0  0  0  0
   -3.6545   -1.2231    0.0000 C   0  0  0  0  0  0  0  0  0  0  0  0
   -3.3726    0.2502    0.0000 C   0  0  0  0  0  0  0  0  0  0  0  0
   -1.9558    0.7428    0.0000 C   0  0  0  0  0  0  0  0  0  0  0  0
   -0.8208   -0.2379    0.0000 C   0  0  0  0  0  0  0  0  0  0  0  0
    0.5960    0.2546    0.0000 N   0  0  0  0  0  0  0  0  0  0  0  0
    1.7310   -0.7261    0.0000 C   0  0  0  0  0  0  0  0  0  0  0  0
    1.4491   -2.1994    0.0000 N   0  0  0  0  0  0  0  0  0  0  0  0
    2.5841   -3.1801    0.0000 C   0  0  0  0  0  0  0  0  0  0  0  0
    4.0009   -2.6875    0.0000 N   0  0  0  0  0  0  0  0  0  0  0  0
    4.2828   -1.2143    0.0000 C   0  0  0  0  0  0  0  0  0  0  0  0
    5.6996   -0.7217    0.0000 C   0  0  0  0  0  0  0  0  0  0  0  0
    5.9814    0.7516    0.0000 C   0  0  0  0  0  0  0  0  0  0  0  0
    7.3983    1.2441    0.0000 O   0  0  0  0  0  0  0  0  0  0  0  0
    8.5332    0.2634    0.0000 C   0  0  0  0  0  0  0  0  0  0  0  0
    4.8465    1.7323    0.0000 C   0  0  0  0  0  0  0  0  0  0  0  0
    5.1283    3.2056    0.0000 O   0  0  0  0  0  0  0  0  0  0  0  0
    3.9933    4.1863    0.0000 C   0  0  0  0  0  0  0  0  0  0  0  0
    3.4296    1.2397    0.0000 C   0  0  0  0  0  0  0  0  0  0  0  0
    3.1478   -0.2335    0.0000 C   0  0  0  0  0  0  0  0  0  0  0  0
   -1.1027   -1.7112    0.0000 C   0  0  0  0  0  0  0  0  0  0  0  0
   -2.5195   -2.2038    0.0000 C   0  0  0  0  0  0  0  0  0  0  0  0
   -2.8013   -3.6771    0.0000 Cl  0  0  0  0  0  0  0  0  0  0  0  0
  1  2  1  0
  2  3  1  0
  3  4  1  0
  4  5  1  0
  5  6  2  0
  5  7  1  0
  7  8  1  0
  8  9  1  0
  9 10  2  0
 10 11  1  0
 11 12  1  0
 12 13  1  0
 13 14  1  0
 14 15  2  0
 15 16  1  0
 16 17  2  0
 17 18  1  0
 18 19  2  0
 19 20  1  0
 20 21  1  0
 19 22  1  0
 22 23  1  0
 23 24  1  0
 22 25  2  0
 25 26  1  0
 11 27  2  0
 27 28  1  0
 28 29  1  0
 28  8  2  0
 26 13  2  0
 26 17  1  0
M  END
>  <ChEMBL_ID>  (187) 
CHEMBL3221258

>  <SMILES>  (187) 
CCCOC(=O)Nc1ccc(Nc2ncnc3cc(OC)c(OC)cc23)cc1Cl

>  <MPO_Hit_Score>  (187) 
0.36559999999999998

>  <Tanimoto_to_Gefitinib>  (187) 
0.51349999999999996

>  <MolecularWeight>  (187) 
416.87

>  <LogP>  (187) 
5

>  <TPSA>  (187) 
94.599999999999994

$$$$
CHEMBL1947124
     RDKit          2D

 33 36  0  0  0  0  0  0  0  0999 V2000
   -6.2274    3.2845    0.0000 C   0  0  0  0  0  0  0  0  0  0  0  0
   -5.1416    2.2495    0.0000 C   0  0  0  0  0  0  0  0  0  0  0  0
   -4.3109    3.4984    0.0000 C   0  0  0  0  0  0  0  0  0  0  0  0
   -3.7674    1.6483    0.0000 C   0  0  0  0  0  0  0  0  0  0  0  0
   -3.6010    0.1575    0.0000 C   0  0  0  0  0  0  0  0  0  0  0  0
   -4.8088   -0.7320    0.0000 C   0  0  0  0  0  0  0  0  0  0  0  0
   -6.1830   -0.1308    0.0000 C   0  0  0  0  0  0  0  0  0  0  0  0
   -6.5365   -1.5885    0.0000 C   0  0  0  0  0  0  0  0  0  0  0  0
   -7.6800   -0.0358    0.0000 C   0  0  0  0  0  0  0  0  0  0  0  0
   -6.3494    1.3600    0.0000 N   0  0  0  0  0  0  0  0  0  0  0  0
   -7.7237    1.9612    0.0000 O   0  0  0  0  0  1  0  0  0  0  0  0
   -2.2267   -0.4437    0.0000 C   0  0  0  0  0  0  0  0  0  0  0  0
   -1.0189    0.4458    0.0000 O   0  0  0  0  0  0  0  0  0  0  0  0
   -2.0603   -1.9345    0.0000 N   0  0  0  0  0  0  0  0  0  0  0  0
   -0.6861   -2.5357    0.0000 C   0  0  0  0  0  0  0  0  0  0  0  0
   -0.5196   -4.0264    0.0000 C   0  0  0  0  0  0  0  0  0  0  0  0
    0.8546   -4.6277    0.0000 C   0  0  0  0  0  0  0  0  0  0  0  0
    2.0624   -3.7382    0.0000 C   0  0  0  0  0  0  0  0  0  0  0  0
    3.4366   -4.3394    0.0000 N   0  0  0  0  0  0  0  0  0  0  0  0
    4.6444   -3.4499    0.0000 C   0  0  0  0  0  0  0  0  0  0  0  0
    4.4780   -1.9592    0.0000 N   0  0  0  0  0  0  0  0  0  0  0  0
    3.1038   -1.3579    0.0000 C   0  0  0  0  0  0  0  0  0  0  0  0
    2.9373    0.1328    0.0000 N   0  0  0  0  0  0  0  0  0  0  0  0
    4.1451    1.0223    0.0000 C   0  0  0  0  0  0  0  0  0  0  0  0
    5.5194    0.4211    0.0000 C   0  0  0  0  0  0  0  0  0  0  0  0
    6.7272    1.3106    0.0000 C   0  0  0  0  0  0  0  0  0  0  0  0
    6.5607    2.8013    0.0000 C   0  0  0  0  0  0  0  0  0  0  0  0
    7.7685    3.6908    0.0000 F   0  0  0  0  0  0  0  0  0  0  0  0
    5.1865    3.4026    0.0000 C   0  0  0  0  0  0  0  0  0  0  0  0
    5.0201    4.8933    0.0000 Cl  0  0  0  0  0  0  0  0  0  0  0  0
    3.9787    2.5131    0.0000 C   0  0  0  0  0  0  0  0  0  0  0  0
    1.8960   -2.2474    0.0000 C   0  0  0  0  0  0  0  0  0  0  0  0
    0.5217   -1.6462    0.0000 C   0  0  0  0  0  0  0  0  0  0  0  0
  1  2  1  0
  2  3  1  0
  2  4  1  0
  4  5  1  0
  5  6  1  0
  6  7  1  0
  7  8  1  0
  7  9  1  0
  7 10  1  0
 10 11  1  0
  5 12  1  0
 12 13  2  0
 12 14  1  0
 14 15  1  0
 15 16  1  0
 16 17  2  0
 17 18  1  0
 18 19  2  0
 19 20  1  0
 20 21  2  0
 21 22  1  0
 22 23  1  0
 23 24  1  0
 24 25  1  0
 25 26  2  0
 26 27  1  0
 27 28  1  0
 27 29  2  0
 29 30  1  0
 29 31  1  0
 22 32  2  0
 32 33  1  0
 10  2  1  0
 33 15  2  0
 32 18  1  0
 31 24  2  0
M  RAD  1  11   2
M  END
>  <ChEMBL_ID>  (188) 
CHEMBL1947124

>  <SMILES>  (188) 
CC1(C)CC(C(=O)Nc2ccc3ncnc(Nc4ccc(F)c(Cl)c4)c3c2)CC(C)(C)N1[O]

>  <MPO_Hit_Score>  (188) 
0.36349999999999999

>  <Tanimoto_to_Gefitinib>  (188) 
0.41460000000000002

>  <MolecularWeight>  (188) 
470.95999999999998

>  <LogP>  (188) 
5.7199999999999998

>  <TPSA>  (188) 
90.049999999999997

$$$$
CHEMBL214857
     RDKit          2D

 32 35  0  0  0  0  0  0  0  0999 V2000
  -10.3004    1.7767    0.0000 C   0  0  0  0  0  0  0  0  0  0  0  0
   -9.6903    0.4064    0.0000 O   0  0  0  0  0  0  0  0  0  0  0  0
   -8.1985    0.2496    0.0000 C   0  0  0  0  0  0  0  0  0  0  0  0
   -7.5884   -1.1208    0.0000 C   0  0  0  0  0  0  0  0  0  0  0  0
   -6.0967   -1.2776    0.0000 N   0  0  0  0  0  0  0  0  0  0  0  0
   -5.2150   -0.0641    0.0000 C   0  0  0  0  0  0  0  0  0  0  0  0
   -3.7232   -0.2209    0.0000 C   0  0  0  0  0  0  0  0  0  0  0  0
   -3.1131   -1.5912    0.0000 C   0  0  0  0  0  0  0  0  0  0  0  0
   -3.9948   -2.8047    0.0000 C   0  0  0  0  0  0  0  0  0  0  0  0
   -5.4866   -2.6479    0.0000 C   0  0  0  0  0  0  0  0  0  0  0  0
   -1.6213   -1.7480    0.0000 O   0  0  0  0  0  0  0  0  0  0  0  0
   -0.7396   -0.5345    0.0000 C   0  0  0  0  0  0  0  0  0  0  0  0
    0.7522   -0.6913    0.0000 C   0  0  0  0  0  0  0  0  0  0  0  0
    1.6339    0.5222    0.0000 C   0  0  0  0  0  0  0  0  0  0  0  0
    3.1256    0.3653    0.0000 C   0  0  0  0  0  0  0  0  0  0  0  0
    3.7357   -1.0050    0.0000 N   0  0  0  0  0  0  0  0  0  0  0  0
    5.2275   -1.1618    0.0000 C   0  0  0  0  0  0  0  0  0  0  0  0
    5.8376   -2.5321    0.0000 C   0  0  0  0  0  0  0  0  0  0  0  0
    7.3294   -2.6890    0.0000 C   0  0  0  0  0  0  0  0  0  0  0  0
    8.2111   -1.4755    0.0000 C   0  0  0  0  0  0  0  0  0  0  0  0
    7.6010   -0.1051    0.0000 C   0  0  0  0  0  0  0  0  0  0  0  0
    8.4827    1.1084    0.0000 Cl  0  0  0  0  0  0  0  0  0  0  0  0
    6.1092    0.0517    0.0000 C   0  0  0  0  0  0  0  0  0  0  0  0
    5.4991    1.4220    0.0000 F   0  0  0  0  0  0  0  0  0  0  0  0
    4.0073    1.5788    0.0000 N   0  0  0  0  0  0  0  0  0  0  0  0
    3.3973    2.9492    0.0000 C   0  0  0  0  0  0  0  0  0  0  0  0
    1.9055    3.1060    0.0000 N   0  0  0  0  0  0  0  0  0  0  0  0
    1.0238    1.8925    0.0000 C   0  0  0  0  0  0  0  0  0  0  0  0
   -0.4680    2.0493    0.0000 C   0  0  0  0  0  0  0  0  0  0  0  0
   -1.3497    0.8358    0.0000 C   0  0  0  0  0  0  0  0  0  0  0  0
   -2.8415    0.9926    0.0000 O   0  0  0  0  0  0  0  0  0  0  0  0
   -3.4516    2.3630    0.0000 C   0  0  0  0  0  0  0  0  0  0  0  0
  1  2  1  0
  2  3  1  0
  3  4  1  0
  4  5  1  0
  5  6  1  0
  6  7  1  0
  7  8  1  0
  8  9  1  0
  9 10  1  0
  8 11  1  0
 11 12  1  0
 12 13  2  0
 13 14  1  0
 14 15  2  0
 15 16  1  0
 16 17  1  0
 17 18  2  0
 18 19  1  0
 19 20  2  0
 20 21  1  0
 21 22  1  0
 21 23  2  0
 23 24  1  0
 15 25  1  0
 25 26  2  0
 26 27  1  0
 27 28  2  0
 28 29  1  0
 29 30  2  0
 30 31  1  0
 31 32  1  0
 10  5  1  0
 30 12  1  0
 28 14  1  0
 23 17  1  0
M  END
>  <ChEMBL_ID>  (189) 
CHEMBL214857

>  <SMILES>  (189) 
COCCN1CCC(Oc2cc3c(Nc4cccc(Cl)c4F)ncnc3cc2OC)CC1

>  <MPO_Hit_Score>  (189) 
0.36299999999999999

>  <Tanimoto_to_Gefitinib>  (189) 
0.5

>  <MolecularWeight>  (189) 
460.94

>  <LogP>  (189) 
4.6600000000000001

>  <TPSA>  (189) 
68.739999999999995

$$$$
CHEMBL2031303
     RDKit          2D

 30 32  0  0  0  0  0  0  0  0999 V2000
   -6.4103   -2.8767    0.0000 C   0  0  0  0  0  0  0  0  0  0  0  0
   -4.9939   -2.3829    0.0000 C   0  0  0  0  0  0  0  0  0  0  0  0
   -3.8581   -3.3627    0.0000 O   0  0  0  0  0  0  0  0  0  0  0  0
   -2.4417   -2.8689    0.0000 C   0  0  0  0  0  0  0  0  0  0  0  0
   -1.3059   -3.8487    0.0000 C   0  0  0  0  0  0  0  0  0  0  0  0
    0.1105   -3.3549    0.0000 C   0  0  0  0  0  0  0  0  0  0  0  0
    1.2463   -4.3346    0.0000 N   0  0  0  0  0  0  0  0  0  0  0  0
    2.6627   -3.8409    0.0000 C   0  0  0  0  0  0  0  0  0  0  0  0
    2.9433   -2.3673    0.0000 N   0  0  0  0  0  0  0  0  0  0  0  0
    1.8075   -1.3876    0.0000 C   0  0  0  0  0  0  0  0  0  0  0  0
    2.0881    0.0859    0.0000 N   0  0  0  0  0  0  0  0  0  0  0  0
    3.5045    0.5797    0.0000 C   0  0  0  0  0  0  0  0  0  0  0  0
    4.6403   -0.4000    0.0000 C   0  0  0  0  0  0  0  0  0  0  0  0
    6.0567    0.0937    0.0000 C   0  0  0  0  0  0  0  0  0  0  0  0
    6.3373    1.5673    0.0000 C   0  0  0  0  0  0  0  0  0  0  0  0
    7.7537    2.0610    0.0000 F   0  0  0  0  0  0  0  0  0  0  0  0
    5.2015    2.5470    0.0000 C   0  0  0  0  0  0  0  0  0  0  0  0
    5.4820    4.0205    0.0000 Cl  0  0  0  0  0  0  0  0  0  0  0  0
    3.7851    2.0532    0.0000 C   0  0  0  0  0  0  0  0  0  0  0  0
    0.3911   -1.8814    0.0000 C   0  0  0  0  0  0  0  0  0  0  0  0
   -0.7447   -0.9016    0.0000 C   0  0  0  0  0  0  0  0  0  0  0  0
   -2.1611   -1.3954    0.0000 C   0  0  0  0  0  0  0  0  0  0  0  0
   -3.2969   -0.4156    0.0000 N   0  0  0  0  0  0  0  0  0  0  0  0
   -3.0164    1.0579    0.0000 C   0  0  0  0  0  0  0  0  0  0  0  0
   -1.6000    1.5517    0.0000 O   0  0  0  0  0  0  0  0  0  0  0  0
   -4.1522    2.0376    0.0000 C   0  0  0  0  0  0  0  0  0  0  0  0
   -3.8716    3.5112    0.0000 C   0  0  0  0  0  0  0  0  0  0  0  0
   -5.0074    4.4909    0.0000 N   0  0  0  0  0  0  0  0  0  0  0  0
   -4.7268    5.9644    0.0000 C   0  0  0  0  0  0  0  0  0  0  0  0
   -6.4238    3.9971    0.0000 C   0  0  0  0  0  0  0  0  0  0  0  0
  1  2  1  0
  2  3  1  0
  3  4  1  0
  4  5  2  0
  5  6  1  0
  6  7  2  0
  7  8  1  0
  8  9  2  0
  9 10  1  0
 10 11  1  0
 11 12  1  0
 12 13  1  0
 13 14  2  0
 14 15  1  0
 15 16  1  0
 15 17  2  0
 17 18  1  0
 17 19  1  0
 10 20  2  0
 20 21  1  0
 21 22  2  0
 22 23  1  0
 23 24  1  0
 24 25  2  0
 24 26  1  0
 26 27  1  0
 27 28  1  0
 28 29  1  0
 28 30  1  0
 22  4  1  0
 20  6  1  0
 19 12  2  0
M  END
>  <ChEMBL_ID>  (190) 
CHEMBL2031303

>  <SMILES>  (190) 
CCOc1cc2ncnc(Nc3ccc(F)c(Cl)c3)c2cc1NC(=O)CCN(C)C

>  <MPO_Hit_Score>  (190) 
0.36030000000000001

>  <Tanimoto_to_Gefitinib>  (190) 
0.44579999999999997

>  <MolecularWeight>  (190) 
431.89999999999998

>  <LogP>  (190) 
4.4500000000000002

>  <TPSA>  (190) 
79.379999999999995

$$$$
CHEMBL533849
     RDKit          2D

 30 33  0  0  0  0  0  0  0  0999 V2000
    2.9194    3.0943    0.0000 C   0  0  0  0  0  0  0  0  0  0  0  0
    1.4324    2.8976    0.0000 O   0  0  0  0  0  0  0  0  0  0  0  0
    0.8592    1.5114    0.0000 C   0  0  0  0  0  0  0  0  0  0  0  0
   -0.6278    1.3147    0.0000 C   0  0  0  0  0  0  0  0  0  0  0  0
   -1.2010   -0.0715    0.0000 C   0  0  0  0  0  0  0  0  0  0  0  0
   -2.6880   -0.2682    0.0000 C   0  0  0  0  0  0  0  0  0  0  0  0
   -3.6019    0.9212    0.0000 N   0  0  0  0  0  0  0  0  0  0  0  0
   -5.0890    0.7245    0.0000 C   0  0  0  0  0  0  0  0  0  0  0  0
   -6.0029    1.9140    0.0000 C   0  0  0  0  0  0  0  0  0  0  0  0
   -7.4899    1.7172    0.0000 C   0  0  0  0  0  0  0  0  0  0  0  0
   -8.0631    0.3311    0.0000 C   0  0  0  0  0  0  0  0  0  0  0  0
   -9.5501    0.1344    0.0000 Br  0  0  0  0  0  0  0  0  0  0  0  0
   -7.1492   -0.8584    0.0000 C   0  0  0  0  0  0  0  0  0  0  0  0
   -5.6621   -0.6617    0.0000 C   0  0  0  0  0  0  0  0  0  0  0  0
   -4.7482   -1.8511    0.0000 F   0  0  0  0  0  0  0  0  0  0  0  0
   -3.2612   -1.6544    0.0000 N   0  0  0  0  0  0  0  0  0  0  0  0
   -2.3473   -2.8439    0.0000 C   0  0  0  0  0  0  0  0  0  0  0  0
   -0.8603   -2.6472    0.0000 N   0  0  0  0  0  0  0  0  0  0  0  0
   -0.2871   -1.2610    0.0000 C   0  0  0  0  0  0  0  0  0  0  0  0
    1.1999   -1.0643    0.0000 C   0  0  0  0  0  0  0  0  0  0  0  0
    1.7731    0.3219    0.0000 C   0  0  0  0  0  0  0  0  0  0  0  0
    3.2601    0.5186    0.0000 O   0  0  0  0  0  0  0  0  0  0  0  0
    4.1740   -0.6708    0.0000 C   0  0  0  0  0  0  0  0  0  0  0  0
    5.6611   -0.4741    0.0000 C   0  0  0  0  0  0  0  0  0  0  0  0
    6.5750   -1.6636    0.0000 C   0  0  0  0  0  0  0  0  0  0  0  0
    8.0620   -1.4669    0.0000 C   0  0  0  0  0  0  0  0  0  0  0  0
    8.6352   -0.0807    0.0000 N   0  0  0  0  0  0  0  0  0  0  0  0
   10.1222    0.1160    0.0000 C   0  0  0  0  0  0  0  0  0  0  0  0
    7.7213    1.1088    0.0000 C   0  0  0  0  0  0  0  0  0  0  0  0
    6.2342    0.9121    0.0000 C   0  0  0  0  0  0  0  0  0  0  0  0
  1  2  1  0
  2  3  1  0
  3  4  2  0
  4  5  1  0
  5  6  2  0
  6  7  1  0
  7  8  1  0
  8  9  1  0
  9 10  2  0
 10 11  1  0
 11 12  1  0
 11 13  2  0
 13 14  1  0
 14 15  1  0
  6 16  1  0
 16 17  2  0
 17 18  1  0
 18 19  2  0
 19 20  1  0
 20 21  2  0
 21 22  1  0
 22 23  1  0
 23 24  1  0
 24 25  1  0
 25 26  1  0
 26 27  1  0
 27 28  1  0
 27 29  1  0
 29 30  1  0
 21  3  1  0
 19  5  1  0
 14  8  2  0
 30 24  1  0
M  END
>  <ChEMBL_ID>  (191) 
CHEMBL533849

>  <SMILES>  (191) 
COc1cc2c(Nc3ccc(Br)cc3F)ncnc2cc1OCC1CCN(C)CC1

>  <MPO_Hit_Score>  (191) 
0.35599999999999998

>  <Tanimoto_to_Gefitinib>  (191) 
0.44440000000000002

>  <MolecularWeight>  (191) 
475.36000000000001

>  <LogP>  (191) 
5

>  <TPSA>  (191) 
59.509999999999998

$$$$
CHEMBL24828
     RDKit          2D

 30 33  0  0  0  0  0  0  0  0999 V2000
    2.9194    3.0943    0.0000 C   0  0  0  0  0  0  0  0  0  0  0  0
    1.4324    2.8976    0.0000 O   0  0  0  0  0  0  0  0  0  0  0  0
    0.8592    1.5114    0.0000 C   0  0  0  0  0  0  0  0  0  0  0  0
   -0.6278    1.3147    0.0000 C   0  0  0  0  0  0  0  0  0  0  0  0
   -1.2010   -0.0715    0.0000 C   0  0  0  0  0  0  0  0  0  0  0  0
   -2.6880   -0.2682    0.0000 C   0  0  0  0  0  0  0  0  0  0  0  0
   -3.6019    0.9212    0.0000 N   0  0  0  0  0  0  0  0  0  0  0  0
   -5.0890    0.7245    0.0000 C   0  0  0  0  0  0  0  0  0  0  0  0
   -6.0029    1.9140    0.0000 C   0  0  0  0  0  0  0  0  0  0  0  0
   -7.4899    1.7172    0.0000 C   0  0  0  0  0  0  0  0  0  0  0  0
   -8.0631    0.3311    0.0000 C   0  0  0  0  0  0  0  0  0  0  0  0
   -9.5501    0.1344    0.0000 Br  0  0  0  0  0  0  0  0  0  0  0  0
   -7.1492   -0.8584    0.0000 C   0  0  0  0  0  0  0  0  0  0  0  0
   -5.6621   -0.6617    0.0000 C   0  0  0  0  0  0  0  0  0  0  0  0
   -4.7482   -1.8511    0.0000 F   0  0  0  0  0  0  0  0  0  0  0  0
   -3.2612   -1.6544    0.0000 N   0  0  0  0  0  0  0  0  0  0  0  0
   -2.3473   -2.8439    0.0000 C   0  0  0  0  0  0  0  0  0  0  0  0
   -0.8603   -2.6472    0.0000 N   0  0  0  0  0  0  0  0  0  0  0  0
   -0.2871   -1.2610    0.0000 C   0  0  0  0  0  0  0  0  0  0  0  0
    1.1999   -1.0643    0.0000 C   0  0  0  0  0  0  0  0  0  0  0  0
    1.7731    0.3219    0.0000 C   0  0  0  0  0  0  0  0  0  0  0  0
    3.2601    0.5186    0.0000 O   0  0  0  0  0  0  0  0  0  0  0  0
    4.1740   -0.6708    0.0000 C   0  0  0  0  0  0  0  0  0  0  0  0
    5.6611   -0.4741    0.0000 C   0  0  0  0  0  0  0  0  0  0  0  0
    6.5750   -1.6636    0.0000 C   0  0  0  0  0  0  0  0  0  0  0  0
    8.0620   -1.4669    0.0000 C   0  0  0  0  0  0  0  0  0  0  0  0
    8.6352   -0.0807    0.0000 N   0  0  0  0  0  0  0  0  0  0  0  0
   10.1222    0.1160    0.0000 C   0  0  0  0  0  0  0  0  0  0  0  0
    7.7213    1.1088    0.0000 C   0  0  0  0  0  0  0  0  0  0  0  0
    6.2342    0.9121    0.0000 C   0  0  0  0  0  0  0  0  0  0  0  0
  1  2  1  0
  2  3  1  0
  3  4  2  0
  4  5  1  0
  5  6  2  0
  6  7  1  0
  7  8  1  0
  8  9  1  0
  9 10  2  0
 10 11  1  0
 11 12  1  0
 11 13  2  0
 13 14  1  0
 14 15  1  0
  6 16  1  0
 16 17  2  0
 17 18  1  0
 18 19  2  0
 19 20  1  0
 20 21  2  0
 21 22  1  0
 22 23  1  0
 23 24  1  0
 24 25  1  0
 25 26  1  0
 26 27  1  0
 27 28  1  0
 27 29  1  0
 29 30  1  0
 21  3  1  0
 19  5  1  0
 14  8  2  0
 30 24  1  0
M  END
>  <ChEMBL_ID>  (192) 
CHEMBL24828

>  <SMILES>  (192) 
COc1cc2c(Nc3ccc(Br)cc3F)ncnc2cc1OCC1CCN(C)CC1

>  <MPO_Hit_Score>  (192) 
0.35599999999999998

>  <Tanimoto_to_Gefitinib>  (192) 
0.44440000000000002

>  <MolecularWeight>  (192) 
475.36000000000001

>  <LogP>  (192) 
5

>  <TPSA>  (192) 
59.509999999999998

$$$$
CHEMBL3221556
     RDKit          2D

 29 31  0  0  0  0  0  0  0  0999 V2000
   -7.9126    4.1731    0.0000 C   0  0  0  0  0  0  0  0  0  0  0  0
   -6.7776    3.1924    0.0000 C   0  0  0  0  0  0  0  0  0  0  0  0
   -7.0594    1.7191    0.0000 C   0  0  0  0  0  0  0  0  0  0  0  0
   -5.9244    0.7384    0.0000 O   0  0  0  0  0  0  0  0  0  0  0  0
   -6.2063   -0.7349    0.0000 C   0  0  0  0  0  0  0  0  0  0  0  0
   -7.6231   -1.2275    0.0000 O   0  0  0  0  0  0  0  0  0  0  0  0
   -5.0713   -1.7156    0.0000 N   0  0  0  0  0  0  0  0  0  0  0  0
   -3.6545   -1.2231    0.0000 C   0  0  0  0  0  0  0  0  0  0  0  0
   -3.3726    0.2502    0.0000 C   0  0  0  0  0  0  0  0  0  0  0  0
   -1.9558    0.7428    0.0000 C   0  0  0  0  0  0  0  0  0  0  0  0
   -0.8208   -0.2379    0.0000 C   0  0  0  0  0  0  0  0  0  0  0  0
    0.5960    0.2546    0.0000 N   0  0  0  0  0  0  0  0  0  0  0  0
    1.7310   -0.7261    0.0000 C   0  0  0  0  0  0  0  0  0  0  0  0
    1.4491   -2.1994    0.0000 N   0  0  0  0  0  0  0  0  0  0  0  0
    2.5841   -3.1801    0.0000 C   0  0  0  0  0  0  0  0  0  0  0  0
    4.0009   -2.6875    0.0000 N   0  0  0  0  0  0  0  0  0  0  0  0
    4.2828   -1.2143    0.0000 C   0  0  0  0  0  0  0  0  0  0  0  0
    5.6996   -0.7217    0.0000 C   0  0  0  0  0  0  0  0  0  0  0  0
    5.9814    0.7516    0.0000 C   0  0  0  0  0  0  0  0  0  0  0  0
    7.3983    1.2441    0.0000 O   0  0  0  0  0  0  0  0  0  0  0  0
    8.5332    0.2634    0.0000 C   0  0  0  0  0  0  0  0  0  0  0  0
    4.8465    1.7323    0.0000 C   0  0  0  0  0  0  0  0  0  0  0  0
    5.1283    3.2056    0.0000 O   0  0  0  0  0  0  0  0  0  0  0  0
    3.9933    4.1863    0.0000 C   0  0  0  0  0  0  0  0  0  0  0  0
    3.4296    1.2397    0.0000 C   0  0  0  0  0  0  0  0  0  0  0  0
    3.1478   -0.2335    0.0000 C   0  0  0  0  0  0  0  0  0  0  0  0
   -1.1027   -1.7112    0.0000 C   0  0  0  0  0  0  0  0  0  0  0  0
   -2.5195   -2.2038    0.0000 C   0  0  0  0  0  0  0  0  0  0  0  0
   -2.8013   -3.6771    0.0000 C   0  0  0  0  0  0  0  0  0  0  0  0
  1  2  1  0
  2  3  1  0
  3  4  1  0
  4  5  1  0
  5  6  2  0
  5  7  1  0
  7  8  1  0
  8  9  1  0
  9 10  2  0
 10 11  1  0
 11 12  1  0
 12 13  1  0
 13 14  1  0
 14 15  2  0
 15 16  1  0
 16 17  2  0
 17 18  1  0
 18 19  2  0
 19 20  1  0
 20 21  1  0
 19 22  1  0
 22 23  1  0
 23 24  1  0
 22 25  2  0
 25 26  1  0
 11 27  2  0
 27 28  1  0
 28 29  1  0
 28  8  2  0
 26 13  2  0
 26 17  1  0
M  END
>  <ChEMBL_ID>  (193) 
CHEMBL3221556

>  <SMILES>  (193) 
CCCOC(=O)Nc1ccc(Nc2ncnc3cc(OC)c(OC)cc23)cc1C

>  <MPO_Hit_Score>  (193) 
0.35599999999999998

>  <Tanimoto_to_Gefitinib>  (193) 
0.43590000000000001

>  <MolecularWeight>  (193) 
396.44999999999999

>  <LogP>  (193) 
4.6600000000000001

>  <TPSA>  (193) 
94.599999999999994

$$$$
CHEMBL2018757
     RDKit          2D

 29 31  0  0  0  0  0  0  0  0999 V2000
   -7.9126    4.1731    0.0000 C   0  0  0  0  0  0  0  0  0  0  0  0
   -6.7776    3.1924    0.0000 C   0  0  0  0  0  0  0  0  0  0  0  0
   -7.0594    1.7191    0.0000 C   0  0  0  0  0  0  0  0  0  0  0  0
   -5.9244    0.7384    0.0000 O   0  0  0  0  0  0  0  0  0  0  0  0
   -6.2063   -0.7349    0.0000 C   0  0  0  0  0  0  0  0  0  0  0  0
   -7.6231   -1.2275    0.0000 O   0  0  0  0  0  0  0  0  0  0  0  0
   -5.0713   -1.7156    0.0000 N   0  0  0  0  0  0  0  0  0  0  0  0
   -3.6545   -1.2231    0.0000 C   0  0  0  0  0  0  0  0  0  0  0  0
   -3.3726    0.2502    0.0000 C   0  0  0  0  0  0  0  0  0  0  0  0
   -1.9558    0.7428    0.0000 C   0  0  0  0  0  0  0  0  0  0  0  0
   -0.8208   -0.2379    0.0000 C   0  0  0  0  0  0  0  0  0  0  0  0
    0.5960    0.2546    0.0000 N   0  0  0  0  0  0  0  0  0  0  0  0
    1.7310   -0.7261    0.0000 C   0  0  0  0  0  0  0  0  0  0  0  0
    1.4491   -2.1994    0.0000 N   0  0  0  0  0  0  0  0  0  0  0  0
    2.5841   -3.1801    0.0000 C   0  0  0  0  0  0  0  0  0  0  0  0
    4.0009   -2.6875    0.0000 N   0  0  0  0  0  0  0  0  0  0  0  0
    4.2828   -1.2143    0.0000 C   0  0  0  0  0  0  0  0  0  0  0  0
    5.6996   -0.7217    0.0000 C   0  0  0  0  0  0  0  0  0  0  0  0
    5.9814    0.7516    0.0000 C   0  0  0  0  0  0  0  0  0  0  0  0
    7.3983    1.2441    0.0000 O   0  0  0  0  0  0  0  0  0  0  0  0
    8.5332    0.2634    0.0000 C   0  0  0  0  0  0  0  0  0  0  0  0
    4.8465    1.7323    0.0000 C   0  0  0  0  0  0  0  0  0  0  0  0
    5.1283    3.2056    0.0000 O   0  0  0  0  0  0  0  0  0  0  0  0
    3.9933    4.1863    0.0000 C   0  0  0  0  0  0  0  0  0  0  0  0
    3.4296    1.2397    0.0000 C   0  0  0  0  0  0  0  0  0  0  0  0
    3.1478   -0.2335    0.0000 C   0  0  0  0  0  0  0  0  0  0  0  0
   -1.1027   -1.7112    0.0000 C   0  0  0  0  0  0  0  0  0  0  0  0
   -2.5195   -2.2038    0.0000 C   0  0  0  0  0  0  0  0  0  0  0  0
   -2.8013   -3.6771    0.0000 C   0  0  0  0  0  0  0  0  0  0  0  0
  1  2  1  0
  2  3  1  0
  3  4  1  0
  4  5  1  0
  5  6  2  0
  5  7  1  0
  7  8  1  0
  8  9  1  0
  9 10  2  0
 10 11  1  0
 11 12  1  0
 12 13  1  0
 13 14  1  0
 14 15  2  0
 15 16  1  0
 16 17  2  0
 17 18  1  0
 18 19  2  0
 19 20  1  0
 20 21  1  0
 19 22  1  0
 22 23  1  0
 23 24  1  0
 22 25  2  0
 25 26  1  0
 11 27  2  0
 27 28  1  0
 28 29  1  0
 28  8  2  0
 26 13  2  0
 26 17  1  0
M  END
>  <ChEMBL_ID>  (194) 
CHEMBL2018757

>  <SMILES>  (194) 
CCCOC(=O)Nc1ccc(Nc2ncnc3cc(OC)c(OC)cc23)cc1C

>  <MPO_Hit_Score>  (194) 
0.35599999999999998

>  <Tanimoto_to_Gefitinib>  (194) 
0.43590000000000001

>  <MolecularWeight>  (194) 
396.44999999999999

>  <LogP>  (194) 
4.6600000000000001

>  <TPSA>  (194) 
94.599999999999994

$$$$
CHEMBL25425
     RDKit          2D

 31 34  0  0  0  0  0  0  0  0999 V2000
    1.9132    4.2315    0.0000 C   0  0  0  0  0  0  0  0  0  0  0  0
    0.4924    3.7504    0.0000 O   0  0  0  0  0  0  0  0  0  0  0  0
    0.1987    2.2794    0.0000 C   0  0  0  0  0  0  0  0  0  0  0  0
   -1.2220    1.7983    0.0000 C   0  0  0  0  0  0  0  0  0  0  0  0
   -1.5157    0.3273    0.0000 C   0  0  0  0  0  0  0  0  0  0  0  0
   -2.9365   -0.1538    0.0000 C   0  0  0  0  0  0  0  0  0  0  0  0
   -4.0635    0.8360    0.0000 N   0  0  0  0  0  0  0  0  0  0  0  0
   -5.4842    0.3549    0.0000 C   0  0  0  0  0  0  0  0  0  0  0  0
   -6.6113    1.3447    0.0000 C   0  0  0  0  0  0  0  0  0  0  0  0
   -8.0320    0.8636    0.0000 C   0  0  0  0  0  0  0  0  0  0  0  0
   -8.3257   -0.6074    0.0000 C   0  0  0  0  0  0  0  0  0  0  0  0
   -9.7465   -1.0885    0.0000 Cl  0  0  0  0  0  0  0  0  0  0  0  0
   -7.1987   -1.5972    0.0000 C   0  0  0  0  0  0  0  0  0  0  0  0
   -5.7779   -1.1161    0.0000 C   0  0  0  0  0  0  0  0  0  0  0  0
   -4.6509   -2.1059    0.0000 F   0  0  0  0  0  0  0  0  0  0  0  0
   -3.2302   -1.6248    0.0000 N   0  0  0  0  0  0  0  0  0  0  0  0
   -2.1031   -2.6146    0.0000 C   0  0  0  0  0  0  0  0  0  0  0  0
   -0.6824   -2.1335    0.0000 N   0  0  0  0  0  0  0  0  0  0  0  0
   -0.3887   -0.6625    0.0000 C   0  0  0  0  0  0  0  0  0  0  0  0
    1.0321   -0.1814    0.0000 C   0  0  0  0  0  0  0  0  0  0  0  0
    1.3258    1.2896    0.0000 C   0  0  0  0  0  0  0  0  0  0  0  0
    2.7465    1.7707    0.0000 O   0  0  0  0  0  0  0  0  0  0  0  0
    3.8736    0.7809    0.0000 C   0  0  0  0  0  0  0  0  0  0  0  0
    5.2943    1.2620    0.0000 C   0  0  0  0  0  0  0  0  0  0  0  0
    6.4213    0.2722    0.0000 C   0  0  0  0  0  0  0  0  0  0  0  0
    6.1276   -1.1988    0.0000 C   0  0  0  0  0  0  0  0  0  0  0  0
    7.2547   -2.1886    0.0000 C   0  0  0  0  0  0  0  0  0  0  0  0
    8.6754   -1.7075    0.0000 N   0  0  0  0  0  0  0  0  0  0  0  0
    9.8025   -2.6973    0.0000 C   0  0  0  0  0  0  0  0  0  0  0  0
    8.9691   -0.2365    0.0000 C   0  0  0  0  0  0  0  0  0  0  0  0
    7.8421    0.7533    0.0000 C   0  0  0  0  0  0  0  0  0  0  0  0
  1  2  1  0
  2  3  1  0
  3  4  2  0
  4  5  1  0
  5  6  2  0
  6  7  1  0
  7  8  1  0
  8  9  1  0
  9 10  2  0
 10 11  1  0
 11 12  1  0
 11 13  2  0
 13 14  1  0
 14 15  1  0
  6 16  1  0
 16 17  2  0
 17 18  1  0
 18 19  2  0
 19 20  1  0
 20 21  2  0
 21 22  1  0
 22 23  1  0
 23 24  1  0
 24 25  1  0
 25 26  1  0
 26 27  1  0
 27 28  1  0
 28 29  1  0
 28 30  1  0
 30 31  1  0
 21  3  1  0
 19  5  1  0
 14  8  2  0
 31 25  1  0
M  END
>  <ChEMBL_ID>  (195) 
CHEMBL25425

>  <SMILES>  (195) 
COc1cc2c(Nc3ccc(Cl)cc3F)ncnc2cc1OCCC1CCN(C)CC1

>  <MPO_Hit_Score>  (195) 
0.35270000000000001

>  <Tanimoto_to_Gefitinib>  (195) 
0.51900000000000002

>  <MolecularWeight>  (195) 
444.94

>  <LogP>  (195) 
5.29

>  <TPSA>  (195) 
59.509999999999998

$$$$
CHEMBL1907764
     RDKit          2D

 30 33  0  0  0  0  0  0  0  0999 V2000
    3.0558    2.9385    0.0000 C   0  0  0  0  0  0  0  0  0  0  0  0
    1.5642    2.7795    0.0000 O   0  0  0  0  0  0  0  0  0  0  0  0
    0.9561    1.4083    0.0000 C   0  0  0  0  0  0  0  0  0  0  0  0
   -0.5354    1.2493    0.0000 C   0  0  0  0  0  0  0  0  0  0  0  0
   -1.1435   -0.1219    0.0000 C   0  0  0  0  0  0  0  0  0  0  0  0
   -2.6351   -0.2809    0.0000 C   0  0  0  0  0  0  0  0  0  0  0  0
   -3.5185    0.9314    0.0000 N   0  0  0  0  0  0  0  0  0  0  0  0
   -5.0101    0.7724    0.0000 C   0  0  0  0  0  0  0  0  0  0  0  0
   -5.8935    1.9846    0.0000 C   0  0  0  0  0  0  0  0  0  0  0  0
   -7.3851    1.8256    0.0000 C   0  0  0  0  0  0  0  0  0  0  0  0
   -7.9932    0.4544    0.0000 C   0  0  0  0  0  0  0  0  0  0  0  0
   -9.4847    0.2954    0.0000 Br  0  0  0  0  0  0  0  0  0  0  0  0
   -7.1097   -0.7578    0.0000 C   0  0  0  0  0  0  0  0  0  0  0  0
   -5.6182   -0.5988    0.0000 C   0  0  0  0  0  0  0  0  0  0  0  0
   -4.7347   -1.8111    0.0000 F   0  0  0  0  0  0  0  0  0  0  0  0
   -3.2432   -1.6521    0.0000 N   0  0  0  0  0  0  0  0  0  0  0  0
   -2.3597   -2.8643    0.0000 C   0  0  0  0  0  0  0  0  0  0  0  0
   -0.8682   -2.7053    0.0000 N   0  0  0  0  0  0  0  0  0  0  0  0
   -0.2601   -1.3341    0.0000 C   0  0  0  0  0  0  0  0  0  0  0  0
    1.2315   -1.1751    0.0000 C   0  0  0  0  0  0  0  0  0  0  0  0
    1.8396    0.1961    0.0000 C   0  0  0  0  0  0  0  0  0  0  0  0
    3.3311    0.3551    0.0000 O   0  0  0  0  0  0  0  0  0  0  0  0
    4.2146   -0.8572    0.0000 C   0  0  0  0  0  0  0  0  0  0  0  0
    5.7061   -0.6982    0.0000 C   0  0  0  0  0  0  0  0  0  0  0  0
    6.5896   -1.9104    0.0000 C   0  0  0  0  0  0  0  0  0  0  0  0
    8.0812   -1.7514    0.0000 C   0  0  0  0  0  0  0  0  0  0  0  0
    8.6892   -0.3802    0.0000 C   0  0  0  0  0  0  0  0  0  0  0  0
    7.8058    0.8320    0.0000 N   0  0  0  0  0  0  0  0  0  0  0  0
    8.4139    2.2032    0.0000 C   0  0  0  0  0  0  0  0  0  0  0  0
    6.3142    0.6730    0.0000 C   0  0  0  0  0  0  0  0  0  0  0  0
  1  2  1  0
  2  3  1  0
  3  4  2  0
  4  5  1  0
  5  6  2  0
  6  7  1  0
  7  8  1  0
  8  9  1  0
  9 10  2  0
 10 11  1  0
 11 12  1  0
 11 13  2  0
 13 14  1  0
 14 15  1  0
  6 16  1  0
 16 17  2  0
 17 18  1  0
 18 19  2  0
 19 20  1  0
 20 21  2  0
 21 22  1  0
 22 23  1  0
 24 23  1  1
 24 25  1  0
 25 26  1  0
 26 27  1  0
 27 28  1  0
 28 29  1  0
 28 30  1  0
 21  3  1  0
 19  5  1  0
 14  8  2  0
 30 24  1  0
M  END
>  <ChEMBL_ID>  (196) 
CHEMBL1907764

>  <SMILES>  (196) 
COc1cc2c(Nc3ccc(Br)cc3F)ncnc2cc1OC[C@@H]1CCCN(C)C1

>  <MPO_Hit_Score>  (196) 
0.35070000000000001

>  <Tanimoto_to_Gefitinib>  (196) 
0.43369999999999997

>  <MolecularWeight>  (196) 
475.36000000000001

>  <LogP>  (196) 
5

>  <TPSA>  (196) 
59.509999999999998

$$$$
CHEMBL1907944
     RDKit          2D

 30 33  0  0  0  0  0  0  0  0999 V2000
    3.0558    2.9385    0.0000 C   0  0  0  0  0  0  0  0  0  0  0  0
    1.5642    2.7795    0.0000 O   0  0  0  0  0  0  0  0  0  0  0  0
    0.9561    1.4083    0.0000 C   0  0  0  0  0  0  0  0  0  0  0  0
   -0.5354    1.2493    0.0000 C   0  0  0  0  0  0  0  0  0  0  0  0
   -1.1435   -0.1219    0.0000 C   0  0  0  0  0  0  0  0  0  0  0  0
   -2.6351   -0.2809    0.0000 C   0  0  0  0  0  0  0  0  0  0  0  0
   -3.5185    0.9314    0.0000 N   0  0  0  0  0  0  0  0  0  0  0  0
   -5.0101    0.7724    0.0000 C   0  0  0  0  0  0  0  0  0  0  0  0
   -5.8935    1.9846    0.0000 C   0  0  0  0  0  0  0  0  0  0  0  0
   -7.3851    1.8256    0.0000 C   0  0  0  0  0  0  0  0  0  0  0  0
   -7.9932    0.4544    0.0000 C   0  0  0  0  0  0  0  0  0  0  0  0
   -9.4847    0.2954    0.0000 Br  0  0  0  0  0  0  0  0  0  0  0  0
   -7.1097   -0.7578    0.0000 C   0  0  0  0  0  0  0  0  0  0  0  0
   -5.6182   -0.5988    0.0000 C   0  0  0  0  0  0  0  0  0  0  0  0
   -4.7347   -1.8111    0.0000 F   0  0  0  0  0  0  0  0  0  0  0  0
   -3.2432   -1.6521    0.0000 N   0  0  0  0  0  0  0  0  0  0  0  0
   -2.3597   -2.8643    0.0000 C   0  0  0  0  0  0  0  0  0  0  0  0
   -0.8682   -2.7053    0.0000 N   0  0  0  0  0  0  0  0  0  0  0  0
   -0.2601   -1.3341    0.0000 C   0  0  0  0  0  0  0  0  0  0  0  0
    1.2315   -1.1751    0.0000 C   0  0  0  0  0  0  0  0  0  0  0  0
    1.8396    0.1961    0.0000 C   0  0  0  0  0  0  0  0  0  0  0  0
    3.3311    0.3551    0.0000 O   0  0  0  0  0  0  0  0  0  0  0  0
    4.2146   -0.8572    0.0000 C   0  0  0  0  0  0  0  0  0  0  0  0
    5.7061   -0.6982    0.0000 C   0  0  0  0  0  0  0  0  0  0  0  0
    6.5896   -1.9104    0.0000 C   0  0  0  0  0  0  0  0  0  0  0  0
    8.0812   -1.7514    0.0000 C   0  0  0  0  0  0  0  0  0  0  0  0
    8.6892   -0.3802    0.0000 C   0  0  0  0  0  0  0  0  0  0  0  0
    7.8058    0.8320    0.0000 N   0  0  0  0  0  0  0  0  0  0  0  0
    8.4139    2.2032    0.0000 C   0  0  0  0  0  0  0  0  0  0  0  0
    6.3142    0.6730    0.0000 C   0  0  0  0  0  0  0  0  0  0  0  0
  1  2  1  0
  2  3  1  0
  3  4  2  0
  4  5  1  0
  5  6  2  0
  6  7  1  0
  7  8  1  0
  8  9  1  0
  9 10  2  0
 10 11  1  0
 11 12  1  0
 11 13  2  0
 13 14  1  0
 14 15  1  0
  6 16  1  0
 16 17  2  0
 17 18  1  0
 18 19  2  0
 19 20  1  0
 20 21  2  0
 21 22  1  0
 22 23  1  0
 24 23  1  6
 24 25  1  0
 25 26  1  0
 26 27  1  0
 27 28  1  0
 28 29  1  0
 28 30  1  0
 21  3  1  0
 19  5  1  0
 14  8  2  0
 30 24  1  0
M  END
>  <ChEMBL_ID>  (197) 
CHEMBL1907944

>  <SMILES>  (197) 
COc1cc2c(Nc3ccc(Br)cc3F)ncnc2cc1OC[C@H]1CCCN(C)C1

>  <MPO_Hit_Score>  (197) 
0.35070000000000001

>  <Tanimoto_to_Gefitinib>  (197) 
0.43369999999999997

>  <MolecularWeight>  (197) 
475.36000000000001

>  <LogP>  (197) 
5

>  <TPSA>  (197) 
59.509999999999998

$$$$
CHEMBL371888
     RDKit          2D

 30 33  0  0  0  0  0  0  0  0999 V2000
   -8.9562    0.7050    0.0000 C   0  0  0  0  0  0  0  0  0  0  0  0
   -8.1954   -0.5878    0.0000 O   0  0  0  0  0  0  0  0  0  0  0  0
   -6.6954   -0.5753    0.0000 C   0  0  0  0  0  0  0  0  0  0  0  0
   -5.9347   -1.8680    0.0000 C   0  0  0  0  0  0  0  0  0  0  0  0
   -4.4347   -1.8556    0.0000 C   0  0  0  0  0  0  0  0  0  0  0  0
   -3.6740   -3.1483    0.0000 N   0  0  0  0  0  0  0  0  0  0  0  0
   -2.1740   -3.1359    0.0000 C   0  0  0  0  0  0  0  0  0  0  0  0
   -1.4348   -1.8306    0.0000 N   0  0  0  0  0  0  0  0  0  0  0  0
   -2.1956   -0.5379    0.0000 C   0  0  0  0  0  0  0  0  0  0  0  0
   -1.4564    0.7673    0.0000 N   0  0  0  0  0  0  0  0  0  0  0  0
    0.0435    0.7798    0.0000 C   0  0  0  0  0  0  0  0  0  0  0  0
    0.8043   -0.5129    0.0000 C   0  0  0  0  0  0  0  0  0  0  0  0
    2.3042   -0.5005    0.0000 C   0  0  0  0  0  0  0  0  0  0  0  0
    3.0434    0.8047    0.0000 C   0  0  0  0  0  0  0  0  0  0  0  0
    4.5434    0.8172    0.0000 O   0  0  0  0  0  0  0  0  0  0  0  0
    5.3041   -0.4755    0.0000 C   0  0  0  0  0  0  0  0  0  0  0  0
    6.8041   -0.4631    0.0000 C   0  0  0  0  0  0  0  0  0  0  0  0
    7.5649   -1.7558    0.0000 C   0  0  0  0  0  0  0  0  0  0  0  0
    9.0648   -1.7434    0.0000 C   0  0  0  0  0  0  0  0  0  0  0  0
    9.8040   -0.4381    0.0000 C   0  0  0  0  0  0  0  0  0  0  0  0
    9.0432    0.8546    0.0000 C   0  0  0  0  0  0  0  0  0  0  0  0
    7.5433    0.8421    0.0000 N   0  0  0  0  0  0  0  0  0  0  0  0
    2.2826    2.0975    0.0000 C   0  0  0  0  0  0  0  0  0  0  0  0
    3.0218    3.4027    0.0000 C   0  0  0  0  0  0  0  0  0  0  0  0
    0.7827    2.0850    0.0000 C   0  0  0  0  0  0  0  0  0  0  0  0
   -3.6956   -0.5503    0.0000 C   0  0  0  0  0  0  0  0  0  0  0  0
   -4.4563    0.7424    0.0000 C   0  0  0  0  0  0  0  0  0  0  0  0
   -5.9563    0.7299    0.0000 C   0  0  0  0  0  0  0  0  0  0  0  0
   -6.7170    2.0227    0.0000 O   0  0  0  0  0  0  0  0  0  0  0  0
   -5.9779    3.3279    0.0000 C   0  0  0  0  0  0  0  0  0  0  0  0
  1  2  1  0
  2  3  1  0
  3  4  2  0
  4  5  1  0
  5  6  2  0
  6  7  1  0
  7  8  2  0
  8  9  1  0
  9 10  1  0
 10 11  1  0
 11 12  1  0
 12 13  2  0
 13 14  1  0
 14 15  1  0
 15 16  1  0
 16 17  1  0
 17 18  2  0
 18 19  1  0
 19 20  2  0
 20 21  1  0
 21 22  2  0
 14 23  2  0
 23 24  1  0
 23 25  1  0
  9 26  2  0
 26 27  1  0
 27 28  2  0
 28 29  1  0
 29 30  1  0
 28  3  1  0
 26  5  1  0
 25 11  2  0
 22 17  1  0
M  END
>  <ChEMBL_ID>  (198) 
CHEMBL371888

>  <SMILES>  (198) 
COc1cc2ncnc(Nc3ccc(OCc4ccccn4)c(C)c3)c2cc1OC

>  <MPO_Hit_Score>  (198) 
0.34749999999999998

>  <Tanimoto_to_Gefitinib>  (198) 
0.42109999999999997

>  <MolecularWeight>  (198) 
402.44999999999999

>  <LogP>  (198) 
4.6699999999999999

>  <TPSA>  (198) 
78.390000000000001

$$$$
CHEMBL416191
     RDKit          2D

 31 34  0  0  0  0  0  0  0  0999 V2000
    3.0318    3.0515    0.0000 C   0  0  0  0  0  0  0  0  0  0  0  0
    1.5491    2.8239    0.0000 O   0  0  0  0  0  0  0  0  0  0  0  0
    1.0049    1.4261    0.0000 C   0  0  0  0  0  0  0  0  0  0  0  0
   -0.4777    1.1985    0.0000 C   0  0  0  0  0  0  0  0  0  0  0  0
   -1.0219   -0.1993    0.0000 C   0  0  0  0  0  0  0  0  0  0  0  0
   -2.5046   -0.4269    0.0000 C   0  0  0  0  0  0  0  0  0  0  0  0
   -3.4430    0.7433    0.0000 N   0  0  0  0  0  0  0  0  0  0  0  0
   -4.9256    0.5157    0.0000 C   0  0  0  0  0  0  0  0  0  0  0  0
   -5.8640    1.6859    0.0000 C   0  0  0  0  0  0  0  0  0  0  0  0
   -5.3198    3.0837    0.0000 F   0  0  0  0  0  0  0  0  0  0  0  0
   -7.3467    1.4583    0.0000 C   0  0  0  0  0  0  0  0  0  0  0  0
   -7.8909    0.0605    0.0000 C   0  0  0  0  0  0  0  0  0  0  0  0
   -9.3735   -0.1671    0.0000 Br  0  0  0  0  0  0  0  0  0  0  0  0
   -6.9524   -1.1097    0.0000 C   0  0  0  0  0  0  0  0  0  0  0  0
   -5.4698   -0.8821    0.0000 C   0  0  0  0  0  0  0  0  0  0  0  0
   -4.5314   -2.0523    0.0000 F   0  0  0  0  0  0  0  0  0  0  0  0
   -3.0488   -1.8247    0.0000 N   0  0  0  0  0  0  0  0  0  0  0  0
   -2.1103   -2.9949    0.0000 C   0  0  0  0  0  0  0  0  0  0  0  0
   -0.6277   -2.7673    0.0000 N   0  0  0  0  0  0  0  0  0  0  0  0
   -0.0835   -1.3695    0.0000 C   0  0  0  0  0  0  0  0  0  0  0  0
    1.3991   -1.1419    0.0000 C   0  0  0  0  0  0  0  0  0  0  0  0
    1.9433    0.2559    0.0000 C   0  0  0  0  0  0  0  0  0  0  0  0
    3.4260    0.4835    0.0000 O   0  0  0  0  0  0  0  0  0  0  0  0
    4.3644   -0.6867    0.0000 C   0  0  0  0  0  0  0  0  0  0  0  0
    5.8470   -0.4591    0.0000 C   0  0  0  0  0  0  0  0  0  0  0  0
    6.7855   -1.6293    0.0000 C   0  0  0  0  0  0  0  0  0  0  0  0
    8.2681   -1.4017    0.0000 C   0  0  0  0  0  0  0  0  0  0  0  0
    8.8123   -0.0039    0.0000 N   0  0  0  0  0  0  0  0  0  0  0  0
   10.2949    0.2237    0.0000 C   0  0  0  0  0  0  0  0  0  0  0  0
    7.8739    1.1663    0.0000 C   0  0  0  0  0  0  0  0  0  0  0  0
    6.3912    0.9387    0.0000 C   0  0  0  0  0  0  0  0  0  0  0  0
  1  2  1  0
  2  3  1  0
  3  4  2  0
  4  5  1  0
  5  6  2  0
  6  7  1  0
  7  8  1  0
  8  9  2  0
  9 10  1  0
  9 11  1  0
 11 12  2  0
 12 13  1  0
 12 14  1  0
 14 15  2  0
 15 16  1  0
  6 17  1  0
 17 18  2  0
 18 19  1  0
 19 20  2  0
 20 21  1  0
 21 22  2  0
 22 23  1  0
 23 24  1  0
 24 25  1  0
 25 26  1  0
 26 27  1  0
 27 28  1  0
 28 29  1  0
 28 30  1  0
 30 31  1  0
 22  3  1  0
 20  5  1  0
 15  8  1  0
 31 25  1  0
M  END
>  <ChEMBL_ID>  (199) 
CHEMBL416191

>  <SMILES>  (199) 
COc1cc2c(Nc3c(F)cc(Br)cc3F)ncnc2cc1OCC1CCN(C)CC1

>  <MPO_Hit_Score>  (199) 
0.34410000000000002

>  <Tanimoto_to_Gefitinib>  (199) 
0.4375

>  <MolecularWeight>  (199) 
493.35000000000002

>  <LogP>  (199) 
5.1399999999999997

>  <TPSA>  (199) 
59.509999999999998

$$$$
CHEMBL3092302
     RDKit          2D

 37 41  0  0  0  0  0  0  0  0999 V2000
  -10.1921   -4.3805    0.0000 O   0  0  0  0  0  0  0  0  0  0  0  0
   -9.0358   -3.4250    0.0000 C   0  0  0  0  0  0  0  0  0  0  0  0
   -7.6302   -3.9486    0.0000 C   0  0  0  0  0  0  0  0  0  0  0  0
   -6.4739   -2.9931    0.0000 C   0  0  0  0  0  0  0  0  0  0  0  0
   -6.7233   -1.5139    0.0000 C   0  0  0  0  0  0  0  0  0  0  0  0
   -5.5670   -0.5584    0.0000 C   0  0  0  0  0  0  0  0  0  0  0  0
   -4.1613   -1.0820    0.0000 N   0  0  0  0  0  0  0  0  0  0  0  0
   -3.9120   -2.5611    0.0000 C   0  0  0  0  0  0  0  0  0  0  0  0
   -5.0682   -3.5167    0.0000 C   0  0  0  0  0  0  0  0  0  0  0  0
   -3.0051   -0.1265    0.0000 C   0  0  0  0  0  0  0  0  0  0  0  0
   -3.2544    1.3526    0.0000 O   0  0  0  0  0  0  0  0  0  0  0  0
   -1.5994   -0.6501    0.0000 N   0  0  0  0  0  0  0  0  0  0  0  0
   -0.4431    0.3054    0.0000 C   0  0  0  0  0  0  0  0  0  0  0  0
    0.9625   -0.2182    0.0000 C   0  0  0  0  0  0  0  0  0  0  0  0
    2.1188    0.7374    0.0000 C   0  0  0  0  0  0  0  0  0  0  0  0
    3.5244    0.2138    0.0000 C   0  0  0  0  0  0  0  0  0  0  0  0
    3.7738   -1.2654    0.0000 N   0  0  0  0  0  0  0  0  0  0  0  0
    5.1794   -1.7890    0.0000 C   0  0  0  0  0  0  0  0  0  0  0  0
    5.4288   -3.2681    0.0000 C   0  0  0  0  0  0  0  0  0  0  0  0
    6.8345   -3.7917    0.0000 C   0  0  0  0  0  0  0  0  0  0  0  0
    7.9907   -2.8362    0.0000 C   0  0  0  0  0  0  0  0  0  0  0  0
    9.3964   -3.3598    0.0000 F   0  0  0  0  0  0  0  0  0  0  0  0
    7.7414   -1.3570    0.0000 C   0  0  0  0  0  0  0  0  0  0  0  0
    8.8976   -0.4015    0.0000 Cl  0  0  0  0  0  0  0  0  0  0  0  0
    6.3357   -0.8334    0.0000 C   0  0  0  0  0  0  0  0  0  0  0  0
    4.6807    1.1693    0.0000 N   0  0  0  0  0  0  0  0  0  0  0  0
    4.4313    2.6484    0.0000 C   0  0  0  0  0  0  0  0  0  0  0  0
    3.0257    3.1720    0.0000 N   0  0  0  0  0  0  0  0  0  0  0  0
    1.8694    2.2165    0.0000 C   0  0  0  0  0  0  0  0  0  0  0  0
    0.4638    2.7401    0.0000 C   0  0  0  0  0  0  0  0  0  0  0  0
   -0.6925    1.7846    0.0000 C   0  0  0  0  0  0  0  0  0  0  0  0
   -2.0982    2.3082    0.0000 O   0  0  0  0  0  0  0  0  0  0  0  0
   -2.3475    3.7873    0.0000 C   0  0  0  0  0  0  0  0  0  0  0  0
   -3.6908    4.4550    0.0000 C   0  0  0  0  0  0  0  0  0  0  0  0
   -3.4708    5.9388    0.0000 C   0  0  0  0  0  0  0  0  0  0  0  0
   -1.9917    6.1881    0.0000 O   0  0  0  0  0  0  0  0  0  0  0  0
   -1.2975    4.8585    0.0000 C   0  0  0  0  0  0  0  0  0  0  0  0
  1  2  1  0
  2  3  1  0
  3  4  1  0
  4  5  1  0
  5  6  1  0
  6  7  1  0
  7  8  1  0
  8  9  1  0
  7 10  1  0
 10 11  2  0
 10 12  1  0
 12 13  1  0
 13 14  2  0
 14 15  1  0
 15 16  2  0
 16 17  1  0
 17 18  1  0
 18 19  1  0
 19 20  2  0
 20 21  1  0
 21 22  1  0
 21 23  2  0
 23 24  1  0
 23 25  1  0
 16 26  1  0
 26 27  2  0
 27 28  1  0
 28 29  2  0
 29 30  1  0
 30 31  2  0
 31 32  1  0
 33 32  1  1
 33 34  1  0
 34 35  1  0
 35 36  1  0
 36 37  1  0
  9  4  1  0
 31 13  1  0
 29 15  1  0
 25 18  2  0
 37 33  1  0
M  END
>  <ChEMBL_ID>  (200) 
CHEMBL3092302

>  <SMILES>  (200) 
O=C(Nc1cc2c(Nc3ccc(F)c(Cl)c3)ncnc2cc1O[C@H]1CCOC1)N1CCC(CCO)CC1

>  <MPO_Hit_Score>  (200) 
0.33739999999999998

>  <Tanimoto_to_Gefitinib>  (200) 
0.4516

>  <MolecularWeight>  (200) 
530

>  <LogP>  (200) 
4.96

>  <TPSA>  (200) 
108.84

$$$$
CHEMBL360209
     RDKit          2D

 31 34  0  0  0  0  0  0  0  0999 V2000
   -7.2409    3.5772    0.0000 C   0  0  0  0  0  0  0  0  0  0  0  0
   -7.3388    2.0804    0.0000 O   0  0  0  0  0  0  0  0  0  0  0  0
   -6.0915    1.2472    0.0000 C   0  0  0  0  0  0  0  0  0  0  0  0
   -6.1895   -0.2496    0.0000 C   0  0  0  0  0  0  0  0  0  0  0  0
   -4.9422   -1.0828    0.0000 C   0  0  0  0  0  0  0  0  0  0  0  0
   -5.0401   -2.5796    0.0000 N   0  0  0  0  0  0  0  0  0  0  0  0
   -3.7928   -3.4129    0.0000 C   0  0  0  0  0  0  0  0  0  0  0  0
   -2.4476   -2.7493    0.0000 N   0  0  0  0  0  0  0  0  0  0  0  0
   -2.3496   -1.2525    0.0000 C   0  0  0  0  0  0  0  0  0  0  0  0
   -1.0044   -0.5889    0.0000 N   0  0  0  0  0  0  0  0  0  0  0  0
    0.2429   -1.4221    0.0000 C   0  0  0  0  0  0  0  0  0  0  0  0
    0.1449   -2.9189    0.0000 C   0  0  0  0  0  0  0  0  0  0  0  0
    1.3922   -3.7521    0.0000 C   0  0  0  0  0  0  0  0  0  0  0  0
    2.7375   -3.0886    0.0000 C   0  0  0  0  0  0  0  0  0  0  0  0
    3.9848   -3.9218    0.0000 Cl  0  0  0  0  0  0  0  0  0  0  0  0
    2.8354   -1.5918    0.0000 C   0  0  0  0  0  0  0  0  0  0  0  0
    4.1807   -0.9282    0.0000 N   0  0  0  0  0  0  0  0  0  0  0  0
    4.2786    0.5686    0.0000 C   0  0  0  0  0  0  0  0  0  0  0  0
    3.0313    1.4018    0.0000 O   0  0  0  0  0  0  0  0  0  0  0  0
    5.6238    1.2322    0.0000 C   0  0  0  0  0  0  0  0  0  0  0  0
    6.8711    0.3990    0.0000 C   0  0  0  0  0  0  0  0  0  0  0  0
    8.2164    1.0625    0.0000 C   0  0  0  0  0  0  0  0  0  0  0  0
    8.3143    2.5593    0.0000 C   0  0  0  0  0  0  0  0  0  0  0  0
    7.0670    3.3926    0.0000 C   0  0  0  0  0  0  0  0  0  0  0  0
    5.7218    2.7290    0.0000 C   0  0  0  0  0  0  0  0  0  0  0  0
    1.5881   -0.7585    0.0000 C   0  0  0  0  0  0  0  0  0  0  0  0
   -3.5969   -0.4193    0.0000 C   0  0  0  0  0  0  0  0  0  0  0  0
   -3.4990    1.0775    0.0000 C   0  0  0  0  0  0  0  0  0  0  0  0
   -4.7463    1.9108    0.0000 C   0  0  0  0  0  0  0  0  0  0  0  0
   -4.6483    3.4076    0.0000 O   0  0  0  0  0  0  0  0  0  0  0  0
   -3.3031    4.0711    0.0000 C   0  0  0  0  0  0  0  0  0  0  0  0
  1  2  1  0
  2  3  1  0
  3  4  2  0
  4  5  1  0
  5  6  2  0
  6  7  1  0
  7  8  2  0
  8  9  1  0
  9 10  1  0
 10 11  1  0
 11 12  1  0
 12 13  2  0
 13 14  1  0
 14 15  1  0
 14 16  2  0
 16 17  1  0
 17 18  1  0
 18 19  2  0
 18 20  1  0
 20 21  2  0
 21 22  1  0
 22 23  2  0
 23 24  1  0
 24 25  2  0
 16 26  1  0
  9 27  2  0
 27 28  1  0
 28 29  2  0
 29 30  1  0
 30 31  1  0
 29  3  1  0
 27  5  1  0
 26 11  2  0
 25 20  1  0
M  END
>  <ChEMBL_ID>  (201) 
CHEMBL360209

>  <SMILES>  (201) 
COc1cc2ncnc(Nc3ccc(Cl)c(NC(=O)c4ccccc4)c3)c2cc1OC

>  <MPO_Hit_Score>  (201) 
0.3357

>  <Tanimoto_to_Gefitinib>  (201) 
0.43590000000000001

>  <MolecularWeight>  (201) 
434.88

>  <LogP>  (201) 
5.2999999999999998

>  <TPSA>  (201) 
85.370000000000005

$$$$
CHEMBL3092309
     RDKit          2D

 37 41  0  0  0  0  0  0  0  0999 V2000
   10.1817   -2.6741    0.0000 F   0  0  0  0  0  0  0  0  0  0  0  0
    8.7245   -2.3185    0.0000 C   0  0  0  0  0  0  0  0  0  0  0  0
    7.6879   -3.4027    0.0000 C   0  0  0  0  0  0  0  0  0  0  0  0
    6.2307   -3.0472    0.0000 C   0  0  0  0  0  0  0  0  0  0  0  0
    5.8100   -1.6074    0.0000 C   0  0  0  0  0  0  0  0  0  0  0  0
    4.3527   -1.2519    0.0000 N   0  0  0  0  0  0  0  0  0  0  0  0
    3.9320    0.1879    0.0000 C   0  0  0  0  0  0  0  0  0  0  0  0
    4.9686    1.2722    0.0000 N   0  0  0  0  0  0  0  0  0  0  0  0
    4.5478    2.7120    0.0000 C   0  0  0  0  0  0  0  0  0  0  0  0
    3.0906    3.0675    0.0000 N   0  0  0  0  0  0  0  0  0  0  0  0
    2.0540    1.9833    0.0000 C   0  0  0  0  0  0  0  0  0  0  0  0
    0.5968    2.3388    0.0000 C   0  0  0  0  0  0  0  0  0  0  0  0
   -0.4397    1.2546    0.0000 C   0  0  0  0  0  0  0  0  0  0  0  0
   -1.8970    1.6101    0.0000 O   0  0  0  0  0  0  0  0  0  0  0  0
   -2.3177    3.0499    0.0000 C   0  0  0  0  0  0  0  0  0  0  0  0
   -3.7298    3.5559    0.0000 C   0  0  0  0  0  0  0  0  0  0  0  0
   -3.6850    5.0552    0.0000 C   0  0  0  0  0  0  0  0  0  0  0  0
   -2.2452    5.4759    0.0000 O   0  0  0  0  0  0  0  0  0  0  0  0
   -1.4002    4.2366    0.0000 C   0  0  0  0  0  0  0  0  0  0  0  0
   -0.0190   -0.1852    0.0000 C   0  0  0  0  0  0  0  0  0  0  0  0
   -1.0556   -1.2694    0.0000 N   0  0  0  0  0  0  0  0  0  0  0  0
   -2.5128   -0.9139    0.0000 C   0  0  0  0  0  0  0  0  0  0  0  0
   -2.9335    0.5259    0.0000 O   0  0  0  0  0  0  0  0  0  0  0  0
   -3.5494   -1.9981    0.0000 N   0  0  0  0  0  0  0  0  0  0  0  0
   -5.0066   -1.6426    0.0000 C   0  0  0  0  0  0  0  0  0  0  0  0
   -6.0432   -2.7268    0.0000 C   0  0  0  0  0  0  0  0  0  0  0  0
   -7.5004   -2.3713    0.0000 N   0  0  0  0  0  0  0  0  0  0  0  0
   -7.9211   -0.9315    0.0000 C   0  0  0  0  0  0  0  0  0  0  0  0
   -9.3784   -0.5759    0.0000 C   0  0  0  0  0  0  0  0  0  0  0  0
  -10.4149   -1.6602    0.0000 C   0  0  0  0  0  0  0  0  0  0  0  0
   -9.9942   -3.1000    0.0000 C   0  0  0  0  0  0  0  0  0  0  0  0
   -8.5370   -3.4555    0.0000 C   0  0  0  0  0  0  0  0  0  0  0  0
    1.4382   -0.5408    0.0000 C   0  0  0  0  0  0  0  0  0  0  0  0
    2.4748    0.5435    0.0000 C   0  0  0  0  0  0  0  0  0  0  0  0
    6.8465   -0.5232    0.0000 C   0  0  0  0  0  0  0  0  0  0  0  0
    8.3038   -0.8787    0.0000 C   0  0  0  0  0  0  0  0  0  0  0  0
    9.3403    0.2055    0.0000 Cl  0  0  0  0  0  0  0  0  0  0  0  0
  1  2  1  0
  2  3  1  0
  3  4  2  0
  4  5  1  0
  5  6  1  0
  6  7  1  0
  7  8  1  0
  8  9  2  0
  9 10  1  0
 10 11  2  0
 11 12  1  0
 12 13  2  0
 13 14  1  0
 15 14  1  1
 15 16  1  0
 16 17  1  0
 17 18  1  0
 18 19  1  0
 13 20  1  0
 20 21  1  0
 21 22  1  0
 22 23  2  0
 22 24  1  0
 24 25  1  0
 25 26  1  0
 26 27  1  0
 27 28  1  0
 28 29  1  0
 29 30  1  0
 30 31  1  0
 31 32  1  0
 20 33  2  0
 33 34  1  0
  5 35  2  0
 35 36  1  0
 36 37  1  0
 36  2  2  0
 34  7  2  0
 34 11  1  0
 19 15  1  0
 32 27  1  0
M  END
>  <ChEMBL_ID>  (202) 
CHEMBL3092309

>  <SMILES>  (202) 
O=C(NCCN1CCCCC1)Nc1cc2c(Nc3ccc(F)c(Cl)c3)ncnc2cc1O[C@H]1CCOC1

>  <MPO_Hit_Score>  (202) 
0.33529999999999999

>  <Tanimoto_to_Gefitinib>  (202) 
0.4945

>  <MolecularWeight>  (202) 
529.01999999999998

>  <LogP>  (202) 
4.9400000000000004

>  <TPSA>  (202) 
100.64

$$$$
CHEMBL3914599
     RDKit          2D

 33 36  0  0  0  0  0  0  0  0999 V2000
   -7.3582    4.8730    0.0000 C   0  0  0  0  0  0  0  0  0  0  0  0
   -6.8617    3.4575    0.0000 C   0  0  0  0  0  0  0  0  0  0  0  0
   -7.8393    2.3198    0.0000 C   0  0  0  0  0  0  0  0  0  0  0  0
   -7.3429    0.9044    0.0000 N   0  0  0  0  0  0  0  0  0  0  0  0
   -8.4028   -0.1571    0.0000 C   0  0  0  0  0  0  0  0  0  0  0  0
   -8.2338   -1.6475    0.0000 C   0  0  0  0  0  0  0  0  0  0  0  0
   -6.9632   -2.4447    0.0000 C   0  0  0  0  0  0  0  0  0  0  0  0
   -5.5477   -1.9482    0.0000 O   0  0  0  0  0  0  0  0  0  0  0  0
   -5.0533   -0.5320    0.0000 C   0  0  0  0  0  0  0  0  0  0  0  0
   -3.5628   -0.3630    0.0000 C   0  0  0  0  0  0  0  0  0  0  0  0
   -2.6712   -1.5693    0.0000 O   0  0  0  0  0  0  0  0  0  0  0  0
   -1.1808   -1.4003    0.0000 C   0  0  0  0  0  0  0  0  0  0  0  0
   -0.2892   -2.6065    0.0000 C   0  0  0  0  0  0  0  0  0  0  0  0
    1.2013   -2.4375    0.0000 C   0  0  0  0  0  0  0  0  0  0  0  0
    2.0928   -3.6438    0.0000 N   0  0  0  0  0  0  0  0  0  0  0  0
    3.5833   -3.4748    0.0000 C   0  0  0  0  0  0  0  0  0  0  0  0
    4.1822   -2.0995    0.0000 N   0  0  0  0  0  0  0  0  0  0  0  0
    3.2906   -0.8933    0.0000 C   0  0  0  0  0  0  0  0  0  0  0  0
    3.8894    0.4820    0.0000 N   0  0  0  0  0  0  0  0  0  0  0  0
    5.3799    0.6510    0.0000 C   0  0  0  0  0  0  0  0  0  0  0  0
    6.2715   -0.5552    0.0000 C   0  0  0  0  0  0  0  0  0  0  0  0
    7.7619   -0.3862    0.0000 C   0  0  0  0  0  0  0  0  0  0  0  0
    8.3608    0.9891    0.0000 C   0  0  0  0  0  0  0  0  0  0  0  0
    9.8512    1.1581    0.0000 Cl  0  0  0  0  0  0  0  0  0  0  0  0
    7.4692    2.1953    0.0000 C   0  0  0  0  0  0  0  0  0  0  0  0
    8.0680    3.5706    0.0000 Cl  0  0  0  0  0  0  0  0  0  0  0  0
    5.9787    2.0263    0.0000 C   0  0  0  0  0  0  0  0  0  0  0  0
    1.8001   -1.0623    0.0000 C   0  0  0  0  0  0  0  0  0  0  0  0
    0.9085    0.1440    0.0000 C   0  0  0  0  0  0  0  0  0  0  0  0
   -0.5819   -0.0250    0.0000 C   0  0  0  0  0  0  0  0  0  0  0  0
   -1.4735    1.1812    0.0000 O   0  0  0  0  0  0  0  0  0  0  0  0
   -0.8747    2.5565    0.0000 C   0  0  0  0  0  0  0  0  0  0  0  0
   -5.8522    0.7375    0.0000 C   0  0  0  0  0  0  0  0  0  0  0  0
  1  2  1  0
  2  3  1  0
  3  4  1  0
  4  5  1  0
  5  6  1  0
  6  7  1  0
  7  8  1  0
  8  9  1  0
  9 10  1  0
 10 11  1  0
 11 12  1  0
 12 13  2  0
 13 14  1  0
 14 15  2  0
 15 16  1  0
 16 17  2  0
 17 18  1  0
 18 19  1  0
 19 20  1  0
 20 21  1  0
 21 22  2  0
 22 23  1  0
 23 24  1  0
 23 25  2  0
 25 26  1  0
 25 27  1  0
 18 28  2  0
 28 29  1  0
 29 30  2  0
 30 31  1  0
 31 32  1  0
  9 33  1  0
 33  4  1  0
 30 12  1  0
 28 14  1  0
 27 20  2  0
M  END
>  <ChEMBL_ID>  (203) 
CHEMBL3914599

>  <SMILES>  (203) 
CCCN1CCCOC(COc2cc3ncnc(Nc4ccc(Cl)c(Cl)c4)c3cc2OC)C1

>  <MPO_Hit_Score>  (203) 
0.33079999999999998

>  <Tanimoto_to_Gefitinib>  (203) 
0.54320000000000002

>  <MolecularWeight>  (203) 
491.42000000000002

>  <LogP>  (203) 
5.5700000000000003

>  <TPSA>  (203) 
68.739999999999995

$$$$
CHEMBL2031304
     RDKit          2D

 33 36  0  0  0  0  0  0  0  0999 V2000
   -4.3819   -5.1020    0.0000 C   0  0  0  0  0  0  0  0  0  0  0  0
   -3.1977   -4.1813    0.0000 C   0  0  0  0  0  0  0  0  0  0  0  0
   -1.8082   -4.7466    0.0000 O   0  0  0  0  0  0  0  0  0  0  0  0
   -0.6240   -3.8259    0.0000 C   0  0  0  0  0  0  0  0  0  0  0  0
    0.7654   -4.3911    0.0000 C   0  0  0  0  0  0  0  0  0  0  0  0
    1.9496   -3.4704    0.0000 C   0  0  0  0  0  0  0  0  0  0  0  0
    3.3391   -4.0357    0.0000 N   0  0  0  0  0  0  0  0  0  0  0  0
    4.5233   -3.1150    0.0000 C   0  0  0  0  0  0  0  0  0  0  0  0
    4.3181   -1.6291    0.0000 N   0  0  0  0  0  0  0  0  0  0  0  0
    2.9286   -1.0639    0.0000 C   0  0  0  0  0  0  0  0  0  0  0  0
    2.7234    0.4220    0.0000 N   0  0  0  0  0  0  0  0  0  0  0  0
    3.9076    1.3427    0.0000 C   0  0  0  0  0  0  0  0  0  0  0  0
    5.2971    0.7775    0.0000 C   0  0  0  0  0  0  0  0  0  0  0  0
    6.4813    1.6982    0.0000 C   0  0  0  0  0  0  0  0  0  0  0  0
    6.2760    3.1840    0.0000 C   0  0  0  0  0  0  0  0  0  0  0  0
    7.4603    4.1047    0.0000 F   0  0  0  0  0  0  0  0  0  0  0  0
    4.8866    3.7493    0.0000 C   0  0  0  0  0  0  0  0  0  0  0  0
    4.6814    5.2352    0.0000 Cl  0  0  0  0  0  0  0  0  0  0  0  0
    3.7024    2.8286    0.0000 C   0  0  0  0  0  0  0  0  0  0  0  0
    1.7444   -1.9845    0.0000 C   0  0  0  0  0  0  0  0  0  0  0  0
    0.3550   -1.4193    0.0000 C   0  0  0  0  0  0  0  0  0  0  0  0
   -0.8292   -2.3400    0.0000 C   0  0  0  0  0  0  0  0  0  0  0  0
   -2.2187   -1.7748    0.0000 N   0  0  0  0  0  0  0  0  0  0  0  0
   -2.4239   -0.2889    0.0000 C   0  0  0  0  0  0  0  0  0  0  0  0
   -1.2397    0.6318    0.0000 O   0  0  0  0  0  0  0  0  0  0  0  0
   -3.8133    0.2763    0.0000 C   0  0  0  0  0  0  0  0  0  0  0  0
   -4.0185    1.7622    0.0000 C   0  0  0  0  0  0  0  0  0  0  0  0
   -5.4080    2.3275    0.0000 N   0  0  0  0  0  0  0  0  0  0  0  0
   -5.6132    3.8133    0.0000 C   0  0  0  0  0  0  0  0  0  0  0  0
   -7.0026    4.3786    0.0000 C   0  0  0  0  0  0  0  0  0  0  0  0
   -8.1868    3.4579    0.0000 C   0  0  0  0  0  0  0  0  0  0  0  0
   -7.9816    1.9720    0.0000 C   0  0  0  0  0  0  0  0  0  0  0  0
   -6.5922    1.4068    0.0000 C   0  0  0  0  0  0  0  0  0  0  0  0
  1  2  1  0
  2  3  1  0
  3  4  1  0
  4  5  2  0
  5  6  1  0
  6  7  2  0
  7  8  1  0
  8  9  2  0
  9 10  1  0
 10 11  1  0
 11 12  1  0
 12 13  1  0
 13 14  2  0
 14 15  1  0
 15 16  1  0
 15 17  2  0
 17 18  1  0
 17 19  1  0
 10 20  2  0
 20 21  1  0
 21 22  2  0
 22 23  1  0
 23 24  1  0
 24 25  2  0
 24 26  1  0
 26 27  1  0
 27 28  1  0
 28 29  1  0
 29 30  1  0
 30 31  1  0
 31 32  1  0
 32 33  1  0
 22  4  1  0
 20  6  1  0
 19 12  2  0
 33 28  1  0
M  END
>  <ChEMBL_ID>  (204) 
CHEMBL2031304

>  <SMILES>  (204) 
CCOc1cc2ncnc(Nc3ccc(F)c(Cl)c3)c2cc1NC(=O)CCN1CCCCC1

>  <MPO_Hit_Score>  (204) 
0.32690000000000002

>  <Tanimoto_to_Gefitinib>  (204) 
0.52439999999999998

>  <MolecularWeight>  (204) 
471.95999999999998

>  <LogP>  (204) 
5.3799999999999999

>  <TPSA>  (204) 
79.379999999999995

$$$$
CHEMBL24979
     RDKit          2D

 31 34  0  0  0  0  0  0  0  0999 V2000
    1.9132    4.2315    0.0000 C   0  0  0  0  0  0  0  0  0  0  0  0
    0.4924    3.7504    0.0000 O   0  0  0  0  0  0  0  0  0  0  0  0
    0.1987    2.2794    0.0000 C   0  0  0  0  0  0  0  0  0  0  0  0
   -1.2220    1.7983    0.0000 C   0  0  0  0  0  0  0  0  0  0  0  0
   -1.5157    0.3273    0.0000 C   0  0  0  0  0  0  0  0  0  0  0  0
   -2.9365   -0.1538    0.0000 C   0  0  0  0  0  0  0  0  0  0  0  0
   -4.0635    0.8360    0.0000 N   0  0  0  0  0  0  0  0  0  0  0  0
   -5.4842    0.3549    0.0000 C   0  0  0  0  0  0  0  0  0  0  0  0
   -6.6113    1.3447    0.0000 C   0  0  0  0  0  0  0  0  0  0  0  0
   -8.0320    0.8636    0.0000 C   0  0  0  0  0  0  0  0  0  0  0  0
   -8.3257   -0.6074    0.0000 C   0  0  0  0  0  0  0  0  0  0  0  0
   -9.7465   -1.0885    0.0000 Br  0  0  0  0  0  0  0  0  0  0  0  0
   -7.1987   -1.5972    0.0000 C   0  0  0  0  0  0  0  0  0  0  0  0
   -5.7779   -1.1161    0.0000 C   0  0  0  0  0  0  0  0  0  0  0  0
   -4.6509   -2.1059    0.0000 F   0  0  0  0  0  0  0  0  0  0  0  0
   -3.2302   -1.6248    0.0000 N   0  0  0  0  0  0  0  0  0  0  0  0
   -2.1031   -2.6146    0.0000 C   0  0  0  0  0  0  0  0  0  0  0  0
   -0.6824   -2.1335    0.0000 N   0  0  0  0  0  0  0  0  0  0  0  0
   -0.3887   -0.6625    0.0000 C   0  0  0  0  0  0  0  0  0  0  0  0
    1.0321   -0.1814    0.0000 C   0  0  0  0  0  0  0  0  0  0  0  0
    1.3258    1.2896    0.0000 C   0  0  0  0  0  0  0  0  0  0  0  0
    2.7465    1.7707    0.0000 O   0  0  0  0  0  0  0  0  0  0  0  0
    3.8736    0.7809    0.0000 C   0  0  0  0  0  0  0  0  0  0  0  0
    5.2943    1.2620    0.0000 C   0  0  0  0  0  0  0  0  0  0  0  0
    6.4213    0.2722    0.0000 C   0  0  0  0  0  0  0  0  0  0  0  0
    6.1276   -1.1988    0.0000 C   0  0  0  0  0  0  0  0  0  0  0  0
    7.2547   -2.1886    0.0000 C   0  0  0  0  0  0  0  0  0  0  0  0
    8.6754   -1.7075    0.0000 N   0  0  0  0  0  0  0  0  0  0  0  0
    9.8025   -2.6973    0.0000 C   0  0  0  0  0  0  0  0  0  0  0  0
    8.9691   -0.2365    0.0000 C   0  0  0  0  0  0  0  0  0  0  0  0
    7.8421    0.7533    0.0000 C   0  0  0  0  0  0  0  0  0  0  0  0
  1  2  1  0
  2  3  1  0
  3  4  2  0
  4  5  1  0
  5  6  2  0
  6  7  1  0
  7  8  1  0
  8  9  1  0
  9 10  2  0
 10 11  1  0
 11 12  1  0
 11 13  2  0
 13 14  1  0
 14 15  1  0
  6 16  1  0
 16 17  2  0
 17 18  1  0
 18 19  2  0
 19 20  1  0
 20 21  2  0
 21 22  1  0
 22 23  1  0
 23 24  1  0
 24 25  1  0
 25 26  1  0
 26 27  1  0
 27 28  1  0
 28 29  1  0
 28 30  1  0
 30 31  1  0
 21  3  1  0
 19  5  1  0
 14  8  2  0
 31 25  1  0
M  END
>  <ChEMBL_ID>  (205) 
CHEMBL24979

>  <SMILES>  (205) 
COc1cc2c(Nc3ccc(Br)cc3F)ncnc2cc1OCCC1CCN(C)CC1

>  <MPO_Hit_Score>  (205) 
0.32390000000000002

>  <Tanimoto_to_Gefitinib>  (205) 
0.46910000000000002

>  <MolecularWeight>  (205) 
489.38999999999999

>  <LogP>  (205) 
5.3899999999999997

>  <TPSA>  (205) 
59.509999999999998

$$$$
CHEMBL185327
     RDKit          2D

 31 34  0  0  0  0  0  0  0  0999 V2000
   -7.9525   -1.6731    0.0000 C   0  0  0  0  0  0  0  0  0  0  0  0
   -6.7014   -2.5007    0.0000 O   0  0  0  0  0  0  0  0  0  0  0  0
   -5.3592   -1.8310    0.0000 C   0  0  0  0  0  0  0  0  0  0  0  0
   -4.1081   -2.6585    0.0000 C   0  0  0  0  0  0  0  0  0  0  0  0
   -2.7659   -1.9888    0.0000 C   0  0  0  0  0  0  0  0  0  0  0  0
   -1.5149   -2.8164    0.0000 N   0  0  0  0  0  0  0  0  0  0  0  0
   -0.1727   -2.1467    0.0000 C   0  0  0  0  0  0  0  0  0  0  0  0
   -0.0815   -0.6495    0.0000 N   0  0  0  0  0  0  0  0  0  0  0  0
   -1.3326    0.1781    0.0000 C   0  0  0  0  0  0  0  0  0  0  0  0
   -1.2414    1.6753    0.0000 N   0  0  0  0  0  0  0  0  0  0  0  0
    0.1008    2.3450    0.0000 C   0  0  0  0  0  0  0  0  0  0  0  0
    1.3518    1.5174    0.0000 C   0  0  0  0  0  0  0  0  0  0  0  0
    2.6940    2.1871    0.0000 C   0  0  0  0  0  0  0  0  0  0  0  0
    3.9451    1.3596    0.0000 N   0  0  0  0  0  0  0  0  0  0  0  0
    3.8540   -0.1376    0.0000 C   0  0  0  0  0  0  0  0  0  0  0  0
    2.5118   -0.8073    0.0000 O   0  0  0  0  0  0  0  0  0  0  0  0
    5.1050   -0.9652    0.0000 C   0  0  0  0  0  0  0  0  0  0  0  0
    5.0139   -2.4624    0.0000 C   0  0  0  0  0  0  0  0  0  0  0  0
    6.2650   -3.2900    0.0000 C   0  0  0  0  0  0  0  0  0  0  0  0
    7.6072   -2.6203    0.0000 C   0  0  0  0  0  0  0  0  0  0  0  0
    7.6983   -1.1230    0.0000 C   0  0  0  0  0  0  0  0  0  0  0  0
    6.4472   -0.2955    0.0000 C   0  0  0  0  0  0  0  0  0  0  0  0
    2.7852    3.6844    0.0000 C   0  0  0  0  0  0  0  0  0  0  0  0
    1.5341    4.5119    0.0000 C   0  0  0  0  0  0  0  0  0  0  0  0
    0.1919    3.8422    0.0000 C   0  0  0  0  0  0  0  0  0  0  0  0
   -1.0592    4.6698    0.0000 Cl  0  0  0  0  0  0  0  0  0  0  0  0
   -2.6748   -0.4916    0.0000 C   0  0  0  0  0  0  0  0  0  0  0  0
   -3.9259    0.3359    0.0000 C   0  0  0  0  0  0  0  0  0  0  0  0
   -5.2681   -0.3338    0.0000 C   0  0  0  0  0  0  0  0  0  0  0  0
   -6.5191    0.4938    0.0000 O   0  0  0  0  0  0  0  0  0  0  0  0
   -6.4280    1.9910    0.0000 C   0  0  0  0  0  0  0  0  0  0  0  0
  1  2  1  0
  2  3  1  0
  3  4  2  0
  4  5  1  0
  5  6  2  0
  6  7  1  0
  7  8  2  0
  8  9  1  0
  9 10  1  0
 10 11  1  0
 11 12  1  0
 12 13  2  0
 13 14  1  0
 14 15  1  0
 15 16  2  0
 15 17  1  0
 17 18  2  0
 18 19  1  0
 19 20  2  0
 20 21  1  0
 21 22  2  0
 13 23  1  0
 23 24  2  0
 24 25  1  0
 25 26  1  0
  9 27  2  0
 27 28  1  0
 28 29  2  0
 29 30  1  0
 30 31  1  0
 29  3  1  0
 27  5  1  0
 25 11  2  0
 22 17  1  0
M  END
>  <ChEMBL_ID>  (206) 
CHEMBL185327

>  <SMILES>  (206) 
COc1cc2ncnc(Nc3cc(NC(=O)c4ccccc4)ccc3Cl)c2cc1OC

>  <MPO_Hit_Score>  (206) 
0.31780000000000003

>  <Tanimoto_to_Gefitinib>  (206) 
0.40000000000000002

>  <MolecularWeight>  (206) 
434.88

>  <LogP>  (206) 
5.2999999999999998

>  <TPSA>  (206) 
85.370000000000005

$$$$
CHEMBL3221547
     RDKit          2D

 30 32  0  0  0  0  0  0  0  0999 V2000
   -9.6988    1.2393    0.0000 C   0  0  0  0  0  0  0  0  0  0  0  0
   -8.8220    0.0223    0.0000 C   0  0  0  0  0  0  0  0  0  0  0  0
   -7.3296    0.1731    0.0000 C   0  0  0  0  0  0  0  0  0  0  0  0
   -6.4527   -1.0439    0.0000 O   0  0  0  0  0  0  0  0  0  0  0  0
   -4.9603   -0.8931    0.0000 C   0  0  0  0  0  0  0  0  0  0  0  0
   -4.0835   -2.1101    0.0000 C   0  0  0  0  0  0  0  0  0  0  0  0
   -2.5911   -1.9593    0.0000 C   0  0  0  0  0  0  0  0  0  0  0  0
   -1.7143   -3.1763    0.0000 N   0  0  0  0  0  0  0  0  0  0  0  0
   -0.2219   -3.0254    0.0000 C   0  0  0  0  0  0  0  0  0  0  0  0
    0.3937   -1.6576    0.0000 N   0  0  0  0  0  0  0  0  0  0  0  0
   -0.4831   -0.4405    0.0000 C   0  0  0  0  0  0  0  0  0  0  0  0
    0.1324    0.9273    0.0000 N   0  0  0  0  0  0  0  0  0  0  0  0
    1.6248    1.0782    0.0000 C   0  0  0  0  0  0  0  0  0  0  0  0
    2.5016   -0.1388    0.0000 C   0  0  0  0  0  0  0  0  0  0  0  0
    3.9940    0.0120    0.0000 C   0  0  0  0  0  0  0  0  0  0  0  0
    4.6096    1.3799    0.0000 C   0  0  0  0  0  0  0  0  0  0  0  0
    6.1020    1.5307    0.0000 N   0  0  0  0  0  0  0  0  0  0  0  0
    6.9788    0.3137    0.0000 C   0  0  0  0  0  0  0  0  0  0  0  0
    8.4712    0.4645    0.0000 O   0  0  0  0  0  0  0  0  0  0  0  0
    6.3633   -1.0542    0.0000 O   0  0  0  0  0  0  0  0  0  0  0  0
    7.2401   -2.2712    0.0000 C   0  0  0  0  0  0  0  0  0  0  0  0
    6.6245   -3.6391    0.0000 C   0  0  0  0  0  0  0  0  0  0  0  0
    3.7328    2.5969    0.0000 C   0  0  0  0  0  0  0  0  0  0  0  0
    4.3483    3.9648    0.0000 Cl  0  0  0  0  0  0  0  0  0  0  0  0
    2.2404    2.4461    0.0000 C   0  0  0  0  0  0  0  0  0  0  0  0
   -1.9755   -0.5914    0.0000 C   0  0  0  0  0  0  0  0  0  0  0  0
   -2.8524    0.6257    0.0000 C   0  0  0  0  0  0  0  0  0  0  0  0
   -4.3448    0.4748    0.0000 C   0  0  0  0  0  0  0  0  0  0  0  0
   -5.2216    1.6918    0.0000 O   0  0  0  0  0  0  0  0  0  0  0  0
   -4.6060    3.0597    0.0000 C   0  0  0  0  0  0  0  0  0  0  0  0
  1  2  1  0
  2  3  1  0
  3  4  1  0
  4  5  1  0
  5  6  2  0
  6  7  1  0
  7  8  2  0
  8  9  1  0
  9 10  2  0
 10 11  1  0
 11 12  1  0
 12 13  1  0
 13 14  1  0
 14 15  2  0
 15 16  1  0
 16 17  1  0
 17 18  1  0
 18 19  2  0
 18 20  1  0
 20 21  1  0
 21 22  1  0
 16 23  2  0
 23 24  1  0
 23 25  1  0
 11 26  2  0
 26 27  1  0
 27 28  2  0
 28 29  1  0
 29 30  1  0
 28  5  1  0
 26  7  1  0
 25 13  2  0
M  END
>  <ChEMBL_ID>  (207) 
CHEMBL3221547

>  <SMILES>  (207) 
CCCOc1cc2ncnc(Nc3ccc(NC(=O)OCC)c(Cl)c3)c2cc1OC

>  <MPO_Hit_Score>  (207) 
0.31759999999999999

>  <Tanimoto_to_Gefitinib>  (207) 
0.50649999999999995

>  <MolecularWeight>  (207) 
430.88999999999999

>  <LogP>  (207) 
5.3899999999999997

>  <TPSA>  (207) 
94.599999999999994

$$$$
CHEMBL26641
     RDKit          2D

 30 33  0  0  0  0  0  0  0  0999 V2000
    2.3849    4.0599    0.0000 C   0  0  0  0  0  0  0  0  0  0  0  0
    0.9480    3.6292    0.0000 O   0  0  0  0  0  0  0  0  0  0  0  0
    0.6025    2.1696    0.0000 C   0  0  0  0  0  0  0  0  0  0  0  0
   -0.8343    1.7389    0.0000 C   0  0  0  0  0  0  0  0  0  0  0  0
   -1.1798    0.2793    0.0000 C   0  0  0  0  0  0  0  0  0  0  0  0
   -2.6167   -0.1514    0.0000 C   0  0  0  0  0  0  0  0  0  0  0  0
   -3.7081    0.8777    0.0000 N   0  0  0  0  0  0  0  0  0  0  0  0
   -5.1449    0.4470    0.0000 C   0  0  0  0  0  0  0  0  0  0  0  0
   -6.2363    1.4761    0.0000 C   0  0  0  0  0  0  0  0  0  0  0  0
   -7.6731    1.0454    0.0000 C   0  0  0  0  0  0  0  0  0  0  0  0
   -8.0186   -0.4142    0.0000 C   0  0  0  0  0  0  0  0  0  0  0  0
   -9.4555   -0.8449    0.0000 Br  0  0  0  0  0  0  0  0  0  0  0  0
   -6.9273   -1.4433    0.0000 C   0  0  0  0  0  0  0  0  0  0  0  0
   -5.4904   -1.0126    0.0000 C   0  0  0  0  0  0  0  0  0  0  0  0
   -4.3990   -2.0417    0.0000 F   0  0  0  0  0  0  0  0  0  0  0  0
   -2.9622   -1.6110    0.0000 N   0  0  0  0  0  0  0  0  0  0  0  0
   -1.8708   -2.6401    0.0000 C   0  0  0  0  0  0  0  0  0  0  0  0
   -0.4340   -2.2095    0.0000 N   0  0  0  0  0  0  0  0  0  0  0  0
   -0.0885   -0.7498    0.0000 C   0  0  0  0  0  0  0  0  0  0  0  0
    1.3484   -0.3191    0.0000 C   0  0  0  0  0  0  0  0  0  0  0  0
    1.6939    1.1405    0.0000 C   0  0  0  0  0  0  0  0  0  0  0  0
    3.1307    1.5712    0.0000 O   0  0  0  0  0  0  0  0  0  0  0  0
    4.2221    0.5421    0.0000 C   0  0  0  0  0  0  0  0  0  0  0  0
    5.6590    0.9728    0.0000 C   0  0  0  0  0  0  0  0  0  0  0  0
    6.7503   -0.0563    0.0000 C   0  0  0  0  0  0  0  0  0  0  0  0
    6.4048   -1.5160    0.0000 C   0  0  0  0  0  0  0  0  0  0  0  0
    7.4962   -2.5450    0.0000 C   0  0  0  0  0  0  0  0  0  0  0  0
    8.9331   -2.1144    0.0000 N   0  0  0  0  0  0  0  0  0  0  0  0
    9.2785   -0.6547    0.0000 C   0  0  0  0  0  0  0  0  0  0  0  0
    8.1872    0.3743    0.0000 C   0  0  0  0  0  0  0  0  0  0  0  0
  1  2  1  0
  2  3  1  0
  3  4  2  0
  4  5  1  0
  5  6  2  0
  6  7  1  0
  7  8  1  0
  8  9  1  0
  9 10  2  0
 10 11  1  0
 11 12  1  0
 11 13  2  0
 13 14  1  0
 14 15  1  0
  6 16  1  0
 16 17  2  0
 17 18  1  0
 18 19  2  0
 19 20  1  0
 20 21  2  0
 21 22  1  0
 22 23  1  0
 23 24  1  0
 24 25  1  0
 25 26  1  0
 26 27  1  0
 27 28  1  0
 28 29  1  0
 29 30  1  0
 21  3  1  0
 19  5  1  0
 14  8  2  0
 30 25  1  0
M  END
>  <ChEMBL_ID>  (208) 
CHEMBL26641

>  <SMILES>  (208) 
COc1cc2c(Nc3ccc(Br)cc3F)ncnc2cc1OCCC1CCNCC1

>  <MPO_Hit_Score>  (208) 
0.31640000000000001

>  <Tanimoto_to_Gefitinib>  (208) 
0.42170000000000002

>  <MolecularWeight>  (208) 
475.36000000000001

>  <LogP>  (208) 
5.0499999999999998

>  <TPSA>  (208) 
68.299999999999997

$$$$
CHEMBL3092317
     RDKit          2D

 36 39  0  0  0  0  0  0  0  0999 V2000
   -6.3489   -7.0681    0.0000 C   0  0  0  0  0  0  0  0  0  0  0  0
   -6.5621   -5.5833    0.0000 N   0  0  0  0  0  0  0  0  0  0  0  0
   -7.9545   -5.0256    0.0000 C   0  0  0  0  0  0  0  0  0  0  0  0
   -5.3828   -4.6563    0.0000 C   0  0  0  0  0  0  0  0  0  0  0  0
   -5.5960   -3.1715    0.0000 C   0  0  0  0  0  0  0  0  0  0  0  0
   -4.4168   -2.2445    0.0000 C   0  0  0  0  0  0  0  0  0  0  0  0
   -4.6300   -0.7597    0.0000 N   0  0  0  0  0  0  0  0  0  0  0  0
   -6.0225   -0.2020    0.0000 C   0  0  0  0  0  0  0  0  0  0  0  0
   -3.4508    0.1673    0.0000 C   0  0  0  0  0  0  0  0  0  0  0  0
   -3.6640    1.6521    0.0000 O   0  0  0  0  0  0  0  0  0  0  0  0
   -2.0583   -0.3904    0.0000 N   0  0  0  0  0  0  0  0  0  0  0  0
   -0.8791    0.5366    0.0000 C   0  0  0  0  0  0  0  0  0  0  0  0
    0.5134   -0.0211    0.0000 C   0  0  0  0  0  0  0  0  0  0  0  0
    1.6926    0.9059    0.0000 C   0  0  0  0  0  0  0  0  0  0  0  0
    3.0851    0.3482    0.0000 C   0  0  0  0  0  0  0  0  0  0  0  0
    3.2983   -1.1366    0.0000 N   0  0  0  0  0  0  0  0  0  0  0  0
    4.6908   -1.6943    0.0000 C   0  0  0  0  0  0  0  0  0  0  0  0
    4.9040   -3.1791    0.0000 C   0  0  0  0  0  0  0  0  0  0  0  0
    6.2964   -3.7369    0.0000 C   0  0  0  0  0  0  0  0  0  0  0  0
    7.4757   -2.8098    0.0000 C   0  0  0  0  0  0  0  0  0  0  0  0
    8.8681   -3.3676    0.0000 F   0  0  0  0  0  0  0  0  0  0  0  0
    7.2625   -1.3251    0.0000 C   0  0  0  0  0  0  0  0  0  0  0  0
    8.4417   -0.3980    0.0000 Cl  0  0  0  0  0  0  0  0  0  0  0  0
    5.8700   -0.7673    0.0000 C   0  0  0  0  0  0  0  0  0  0  0  0
    4.2643    1.2752    0.0000 N   0  0  0  0  0  0  0  0  0  0  0  0
    4.0511    2.7600    0.0000 C   0  0  0  0  0  0  0  0  0  0  0  0
    2.6587    3.3177    0.0000 N   0  0  0  0  0  0  0  0  0  0  0  0
    1.4794    2.3907    0.0000 C   0  0  0  0  0  0  0  0  0  0  0  0
    0.0870    2.9484    0.0000 C   0  0  0  0  0  0  0  0  0  0  0  0
   -1.0923    2.0214    0.0000 C   0  0  0  0  0  0  0  0  0  0  0  0
   -2.4847    2.5791    0.0000 O   0  0  0  0  0  0  0  0  0  0  0  0
   -2.6979    4.0639    0.0000 C   0  0  0  0  0  0  0  0  0  0  0  0
   -4.0245    4.7641    0.0000 C   0  0  0  0  0  0  0  0  0  0  0  0
   -3.7684    6.2421    0.0000 C   0  0  0  0  0  0  0  0  0  0  0  0
   -2.2836    6.4553    0.0000 O   0  0  0  0  0  0  0  0  0  0  0  0
   -1.6220    5.1091    0.0000 C   0  0  0  0  0  0  0  0  0  0  0  0
  1  2  1  0
  2  3  1  0
  2  4  1  0
  4  5  1  0
  5  6  1  0
  6  7  1  0
  7  8  1  0
  7  9  1  0
  9 10  2  0
  9 11  1  0
 11 12  1  0
 12 13  2  0
 13 14  1  0
 14 15  2  0
 15 16  1  0
 16 17  1  0
 17 18  1  0
 18 19  2  0
 19 20  1  0
 20 21  1  0
 20 22  2  0
 22 23  1  0
 22 24  1  0
 15 25  1  0
 25 26  2  0
 26 27  1  0
 27 28  2  0
 28 29  1  0
 29 30  2  0
 30 31  1  0
 32 31  1  1
 32 33  1  0
 33 34  1  0
 34 35  1  0
 35 36  1  0
 30 12  1  0
 28 14  1  0
 24 17  2  0
 36 32  1  0
M  END
>  <ChEMBL_ID>  (209) 
CHEMBL3092317

>  <SMILES>  (209) 
CN(C)CCCN(C)C(=O)Nc1cc2c(Nc3ccc(F)c(Cl)c3)ncnc2cc1O[C@H]1CCOC1

>  <MPO_Hit_Score>  (209) 
0.30730000000000002

>  <Tanimoto_to_Gefitinib>  (209) 
0.45650000000000002

>  <MolecularWeight>  (209) 
517.00999999999999

>  <LogP>  (209) 
4.75

>  <TPSA>  (209) 
91.849999999999994

$$$$
CHEMBL2064386
     RDKit          2D

 38 43  0  0  0  0  0  0  0  0999 V2000
   -8.7143   -0.5508    0.0000 O   0  0  0  0  0  0  0  0  0  0  0  0
   -7.3132   -1.0864    0.0000 C   0  0  0  0  0  0  0  0  0  0  0  0
   -6.9229   -2.5347    0.0000 O   0  0  0  0  0  0  0  0  0  0  0  0
   -5.4249   -2.6111    0.0000 C   0  0  0  0  0  0  0  0  0  0  0  0
   -4.4793   -3.7756    0.0000 C   0  0  0  0  0  0  0  0  0  0  0  0
   -2.9981   -3.5388    0.0000 C   0  0  0  0  0  0  0  0  0  0  0  0
   -2.0525   -4.7033    0.0000 N   0  0  0  0  0  0  0  0  0  0  0  0
   -0.5713   -4.4666    0.0000 C   0  0  0  0  0  0  0  0  0  0  0  0
   -0.0357   -3.0654    0.0000 N   0  0  0  0  0  0  0  0  0  0  0  0
   -0.9813   -1.9010    0.0000 C   0  0  0  0  0  0  0  0  0  0  0  0
   -0.4457   -0.4999    0.0000 N   0  0  0  0  0  0  0  0  0  0  0  0
    1.0356   -0.2632    0.0000 C   0  0  0  0  0  0  0  0  0  0  0  0
    1.9811   -1.4276    0.0000 C   0  0  0  0  0  0  0  0  0  0  0  0
    3.4624   -1.1909    0.0000 C   0  0  0  0  0  0  0  0  0  0  0  0
    3.9980    0.2102    0.0000 C   0  0  0  0  0  0  0  0  0  0  0  0
    5.4792    0.4469    0.0000 O   0  0  0  0  0  0  0  0  0  0  0  0
    6.4248   -0.7175    0.0000 C   0  0  0  0  0  0  0  0  0  0  0  0
    7.9060   -0.4808    0.0000 C   0  0  0  0  0  0  0  0  0  0  0  0
    8.8516   -1.6452    0.0000 C   0  0  0  0  0  0  0  0  0  0  0  0
   10.3328   -1.4085    0.0000 C   0  0  0  0  0  0  0  0  0  0  0  0
   10.8684   -0.0074    0.0000 C   0  0  0  0  0  0  0  0  0  0  0  0
    9.9228    1.1570    0.0000 C   0  0  0  0  0  0  0  0  0  0  0  0
    8.4416    0.9203    0.0000 C   0  0  0  0  0  0  0  0  0  0  0  0
    3.0524    1.3746    0.0000 C   0  0  0  0  0  0  0  0  0  0  0  0
    1.5712    1.1379    0.0000 C   0  0  0  0  0  0  0  0  0  0  0  0
   -2.4625   -2.1377    0.0000 C   0  0  0  0  0  0  0  0  0  0  0  0
   -3.4081   -0.9733    0.0000 C   0  0  0  0  0  0  0  0  0  0  0  0
   -4.8893   -1.2100    0.0000 C   0  0  0  0  0  0  0  0  0  0  0  0
   -6.0563   -0.2677    0.0000 N   0  0  0  0  0  0  0  0  0  0  0  0
   -5.9799    1.2304    0.0000 C   0  0  0  0  0  0  0  0  0  0  0  0
   -4.6443    1.9132    0.0000 C   0  0  0  0  0  0  0  0  0  0  0  0
   -4.5679    3.4113    0.0000 C   0  0  0  0  0  0  0  0  0  0  0  0
   -3.2323    4.0941    0.0000 N   0  0  0  0  0  0  0  0  0  0  0  0
   -1.9732    3.2789    0.0000 C   0  0  0  0  0  0  0  0  0  0  0  0
   -0.6376    3.9617    0.0000 C   0  0  0  0  0  0  0  0  0  0  0  0
   -0.5612    5.4598    0.0000 O   0  0  0  0  0  0  0  0  0  0  0  0
   -1.8203    6.2750    0.0000 C   0  0  0  0  0  0  0  0  0  0  0  0
   -3.1559    5.5922    0.0000 C   0  0  0  0  0  0  0  0  0  0  0  0
  1  2  2  0
  2  3  1  0
  3  4  1  0
  4  5  2  0
  5  6  1  0
  6  7  2  0
  7  8  1  0
  8  9  2  0
  9 10  1  0
 10 11  1  0
 11 12  1  0
 12 13  1  0
 13 14  2  0
 14 15  1  0
 15 16  1  0
 16 17  1  0
 17 18  1  0
 18 19  2  0
 19 20  1  0
 20 21  2  0
 21 22  1  0
 22 23  2  0
 15 24  2  0
 24 25  1  0
 10 26  2  0
 26 27  1  0
 27 28  2  0
 28 29  1  0
 29 30  1  0
 30 31  1  0
 31 32  1  0
 32 33  1  0
 33 34  1  0
 34 35  1  0
 35 36  1  0
 36 37  1  0
 37 38  1  0
 29  2  1  0
 28  4  1  0
 26  6  1  0
 25 12  2  0
 23 18  1  0
 38 33  1  0
M  END
>  <ChEMBL_ID>  (210) 
CHEMBL2064386

>  <SMILES>  (210) 
O=c1oc2cc3ncnc(Nc4ccc(OCc5ccccc5)cc4)c3cc2n1CCCN1CCOCC1

>  <MPO_Hit_Score>  (210) 
0.30459999999999998

>  <Tanimoto_to_Gefitinib>  (210) 
0.41570000000000001

>  <MolecularWeight>  (210) 
511.57999999999998

>  <LogP>  (210) 
4.5800000000000001

>  <TPSA>  (210) 
94.650000000000006

$$$$
CHEMBL25579
     RDKit          2D

 32 35  0  0  0  0  0  0  0  0999 V2000
    1.9129    4.5620    0.0000 C   0  0  0  0  0  0  0  0  0  0  0  0
    0.5127    4.0240    0.0000 O   0  0  0  0  0  0  0  0  0  0  0  0
    0.2785    2.5424    0.0000 C   0  0  0  0  0  0  0  0  0  0  0  0
   -1.1217    2.0044    0.0000 C   0  0  0  0  0  0  0  0  0  0  0  0
   -1.3558    0.5228    0.0000 C   0  0  0  0  0  0  0  0  0  0  0  0
   -2.7560   -0.0153    0.0000 C   0  0  0  0  0  0  0  0  0  0  0  0
   -3.9221    0.9283    0.0000 N   0  0  0  0  0  0  0  0  0  0  0  0
   -5.3223    0.3903    0.0000 C   0  0  0  0  0  0  0  0  0  0  0  0
   -6.4883    1.3339    0.0000 C   0  0  0  0  0  0  0  0  0  0  0  0
   -7.8885    0.7959    0.0000 C   0  0  0  0  0  0  0  0  0  0  0  0
   -8.1226   -0.6857    0.0000 C   0  0  0  0  0  0  0  0  0  0  0  0
   -9.5228   -1.2237    0.0000 Cl  0  0  0  0  0  0  0  0  0  0  0  0
   -6.9566   -1.6293    0.0000 C   0  0  0  0  0  0  0  0  0  0  0  0
   -5.5564   -1.0913    0.0000 C   0  0  0  0  0  0  0  0  0  0  0  0
   -4.3904   -2.0349    0.0000 F   0  0  0  0  0  0  0  0  0  0  0  0
   -2.9902   -1.4969    0.0000 N   0  0  0  0  0  0  0  0  0  0  0  0
   -1.8242   -2.4405    0.0000 C   0  0  0  0  0  0  0  0  0  0  0  0
   -0.4240   -1.9025    0.0000 N   0  0  0  0  0  0  0  0  0  0  0  0
   -0.1898   -0.4208    0.0000 C   0  0  0  0  0  0  0  0  0  0  0  0
    1.2104    0.1172    0.0000 C   0  0  0  0  0  0  0  0  0  0  0  0
    1.4445    1.5988    0.0000 C   0  0  0  0  0  0  0  0  0  0  0  0
    2.8447    2.1368    0.0000 O   0  0  0  0  0  0  0  0  0  0  0  0
    4.0108    1.1932    0.0000 C   0  0  0  0  0  0  0  0  0  0  0  0
    5.4110    1.7312    0.0000 C   0  0  0  0  0  0  0  0  0  0  0  0
    6.5770    0.7876    0.0000 N   0  0  0  0  0  0  0  0  0  0  0  0
    7.9772    1.3257    0.0000 C   0  0  0  0  0  0  0  0  0  0  0  0
    6.3428   -0.6940    0.0000 C   0  0  0  0  0  0  0  0  0  0  0  0
    4.9426   -1.2320    0.0000 C   0  0  0  0  0  0  0  0  0  0  0  0
    4.7085   -2.7136    0.0000 C   0  0  0  0  0  0  0  0  0  0  0  0
    5.8745   -3.6572    0.0000 N   0  0  0  0  0  0  0  0  0  0  0  0
    7.2747   -3.1192    0.0000 C   0  0  0  0  0  0  0  0  0  0  0  0
    7.5089   -1.6376    0.0000 C   0  0  0  0  0  0  0  0  0  0  0  0
  1  2  1  0
  2  3  1  0
  3  4  2  0
  4  5  1  0
  5  6  2  0
  6  7  1  0
  7  8  1  0
  8  9  1  0
  9 10  2  0
 10 11  1  0
 11 12  1  0
 11 13  2  0
 13 14  1  0
 14 15  1  0
  6 16  1  0
 16 17  2  0
 17 18  1  0
 18 19  2  0
 19 20  1  0
 20 21  2  0
 21 22  1  0
 22 23  1  0
 23 24  1  0
 24 25  1  0
 25 26  1  0
 25 27  1  0
 27 28  1  0
 28 29  2  0
 29 30  1  0
 30 31  2  0
 31 32  1  0
 21  3  1  0
 19  5  1  0
 14  8  2  0
 32 27  2  0
M  END
>  <ChEMBL_ID>  (211) 
CHEMBL25579

>  <SMILES>  (211) 
COc1cc2c(Nc3ccc(Cl)cc3F)ncnc2cc1OCCN(C)c1ccncc1

>  <MPO_Hit_Score>  (211) 
0.30430000000000001

>  <Tanimoto_to_Gefitinib>  (211) 
0.45119999999999999

>  <MolecularWeight>  (211) 
453.91000000000003

>  <LogP>  (211) 
5.0800000000000001

>  <TPSA>  (211) 
72.400000000000006

$$$$
CHEMBL3221542
     RDKit          2D

 30 32  0  0  0  0  0  0  0  0999 V2000
   -9.6988    1.2393    0.0000 C   0  0  0  0  0  0  0  0  0  0  0  0
   -8.8220    0.0223    0.0000 C   0  0  0  0  0  0  0  0  0  0  0  0
   -7.3296    0.1731    0.0000 C   0  0  0  0  0  0  0  0  0  0  0  0
   -6.4527   -1.0439    0.0000 O   0  0  0  0  0  0  0  0  0  0  0  0
   -4.9603   -0.8931    0.0000 C   0  0  0  0  0  0  0  0  0  0  0  0
   -4.0835   -2.1101    0.0000 C   0  0  0  0  0  0  0  0  0  0  0  0
   -2.5911   -1.9593    0.0000 C   0  0  0  0  0  0  0  0  0  0  0  0
   -1.7143   -3.1763    0.0000 N   0  0  0  0  0  0  0  0  0  0  0  0
   -0.2219   -3.0254    0.0000 C   0  0  0  0  0  0  0  0  0  0  0  0
    0.3937   -1.6576    0.0000 N   0  0  0  0  0  0  0  0  0  0  0  0
   -0.4831   -0.4405    0.0000 C   0  0  0  0  0  0  0  0  0  0  0  0
    0.1324    0.9273    0.0000 N   0  0  0  0  0  0  0  0  0  0  0  0
    1.6248    1.0782    0.0000 C   0  0  0  0  0  0  0  0  0  0  0  0
    2.5016   -0.1388    0.0000 C   0  0  0  0  0  0  0  0  0  0  0  0
    3.9940    0.0120    0.0000 C   0  0  0  0  0  0  0  0  0  0  0  0
    4.6096    1.3799    0.0000 C   0  0  0  0  0  0  0  0  0  0  0  0
    6.1020    1.5307    0.0000 N   0  0  0  0  0  0  0  0  0  0  0  0
    6.9788    0.3137    0.0000 C   0  0  0  0  0  0  0  0  0  0  0  0
    8.4712    0.4645    0.0000 O   0  0  0  0  0  0  0  0  0  0  0  0
    6.3633   -1.0542    0.0000 O   0  0  0  0  0  0  0  0  0  0  0  0
    7.2401   -2.2712    0.0000 C   0  0  0  0  0  0  0  0  0  0  0  0
    6.6245   -3.6391    0.0000 C   0  0  0  0  0  0  0  0  0  0  0  0
    3.7328    2.5969    0.0000 C   0  0  0  0  0  0  0  0  0  0  0  0
    4.3483    3.9648    0.0000 C   0  0  0  0  0  0  0  0  0  0  0  0
    2.2404    2.4461    0.0000 C   0  0  0  0  0  0  0  0  0  0  0  0
   -1.9755   -0.5914    0.0000 C   0  0  0  0  0  0  0  0  0  0  0  0
   -2.8524    0.6257    0.0000 C   0  0  0  0  0  0  0  0  0  0  0  0
   -4.3448    0.4748    0.0000 C   0  0  0  0  0  0  0  0  0  0  0  0
   -5.2216    1.6918    0.0000 O   0  0  0  0  0  0  0  0  0  0  0  0
   -4.6060    3.0597    0.0000 C   0  0  0  0  0  0  0  0  0  0  0  0
  1  2  1  0
  2  3  1  0
  3  4  1  0
  4  5  1  0
  5  6  2  0
  6  7  1  0
  7  8  2  0
  8  9  1  0
  9 10  2  0
 10 11  1  0
 11 12  1  0
 12 13  1  0
 13 14  1  0
 14 15  2  0
 15 16  1  0
 16 17  1  0
 17 18  1  0
 18 19  2  0
 18 20  1  0
 20 21  1  0
 21 22  1  0
 16 23  2  0
 23 24  1  0
 23 25  1  0
 11 26  2  0
 26 27  1  0
 27 28  2  0
 28 29  1  0
 29 30  1  0
 28  5  1  0
 26  7  1  0
 25 13  2  0
M  END
>  <ChEMBL_ID>  (212) 
CHEMBL3221542

>  <SMILES>  (212) 
CCCOc1cc2ncnc(Nc3ccc(NC(=O)OCC)c(C)c3)c2cc1OC

>  <MPO_Hit_Score>  (212) 
0.29930000000000001

>  <Tanimoto_to_Gefitinib>  (212) 
0.4375

>  <MolecularWeight>  (212) 
410.47000000000003

>  <LogP>  (212) 
5.0499999999999998

>  <TPSA>  (212) 
94.599999999999994

$$$$
CHEMBL184682
     RDKit          2D

 34 37  0  0  0  0  0  0  0  0999 V2000
   -7.2592    4.3537    0.0000 C   0  0  0  0  0  0  0  0  0  0  0  0
   -7.6018    2.8934    0.0000 O   0  0  0  0  0  0  0  0  0  0  0  0
   -6.5084    1.8665    0.0000 C   0  0  0  0  0  0  0  0  0  0  0  0
   -6.8509    0.4062    0.0000 C   0  0  0  0  0  0  0  0  0  0  0  0
   -5.7575   -0.6207    0.0000 C   0  0  0  0  0  0  0  0  0  0  0  0
   -6.1000   -2.0810    0.0000 N   0  0  0  0  0  0  0  0  0  0  0  0
   -5.0066   -3.1079    0.0000 C   0  0  0  0  0  0  0  0  0  0  0  0
   -3.5706   -2.6744    0.0000 N   0  0  0  0  0  0  0  0  0  0  0  0
   -3.2281   -1.2140    0.0000 C   0  0  0  0  0  0  0  0  0  0  0  0
   -1.7921   -0.7805    0.0000 N   0  0  0  0  0  0  0  0  0  0  0  0
   -0.6986   -1.8073    0.0000 C   0  0  0  0  0  0  0  0  0  0  0  0
   -1.0412   -3.2677    0.0000 C   0  0  0  0  0  0  0  0  0  0  0  0
    0.0522   -4.2945    0.0000 C   0  0  0  0  0  0  0  0  0  0  0  0
    1.4882   -3.8610    0.0000 C   0  0  0  0  0  0  0  0  0  0  0  0
    2.5816   -4.8879    0.0000 Cl  0  0  0  0  0  0  0  0  0  0  0  0
    1.8308   -2.4006    0.0000 C   0  0  0  0  0  0  0  0  0  0  0  0
    3.2668   -1.9671    0.0000 N   0  0  0  0  0  0  0  0  0  0  0  0
    3.6093   -0.5068    0.0000 C   0  0  0  0  0  0  0  0  0  0  0  0
    2.5159    0.5201    0.0000 O   0  0  0  0  0  0  0  0  0  0  0  0
    5.0453   -0.0732    0.0000 C   0  0  0  0  0  0  0  0  0  0  0  0
    6.1387   -1.1001    0.0000 C   0  0  0  0  0  0  0  0  0  0  0  0
    7.5747   -0.6666    0.0000 C   0  0  0  0  0  0  0  0  0  0  0  0
    7.9173    0.7938    0.0000 C   0  0  0  0  0  0  0  0  0  0  0  0
    6.8238    1.8206    0.0000 C   0  0  0  0  0  0  0  0  0  0  0  0
    5.3879    1.3871    0.0000 C   0  0  0  0  0  0  0  0  0  0  0  0
    7.1664    3.2810    0.0000 N   0  0  0  0  0  0  0  0  0  0  0  0
    8.6024    3.7145    0.0000 C   0  0  0  0  0  0  0  0  0  0  0  0
    6.0730    4.3078    0.0000 C   0  0  0  0  0  0  0  0  0  0  0  0
    0.7373   -1.3738    0.0000 C   0  0  0  0  0  0  0  0  0  0  0  0
   -4.3215   -0.1872    0.0000 C   0  0  0  0  0  0  0  0  0  0  0  0
   -3.9789    1.2732    0.0000 C   0  0  0  0  0  0  0  0  0  0  0  0
   -5.0724    2.3000    0.0000 C   0  0  0  0  0  0  0  0  0  0  0  0
   -4.7298    3.7604    0.0000 O   0  0  0  0  0  0  0  0  0  0  0  0
   -3.2938    4.1939    0.0000 C   0  0  0  0  0  0  0  0  0  0  0  0
  1  2  1  0
  2  3  1  0
  3  4  2  0
  4  5  1  0
  5  6  2  0
  6  7  1  0
  7  8  2  0
  8  9  1  0
  9 10  1  0
 10 11  1  0
 11 12  1  0
 12 13  2  0
 13 14  1  0
 14 15  1  0
 14 16  2  0
 16 17  1  0
 17 18  1  0
 18 19  2  0
 18 20  1  0
 20 21  1  0
 21 22  2  0
 22 23  1  0
 23 24  2  0
 24 25  1  0
 24 26  1  0
 26 27  1  0
 26 28  1  0
 16 29  1  0
  9 30  2  0
 30 31  1  0
 31 32  2  0
 32 33  1  0
 33 34  1  0
 32  3  1  0
 30  5  1  0
 29 11  2  0
 25 20  2  0
M  END
>  <ChEMBL_ID>  (213) 
CHEMBL184682

>  <SMILES>  (213) 
COc1cc2ncnc(Nc3ccc(Cl)c(NC(=O)c4cccc(N(C)C)c4)c3)c2cc1OC

>  <MPO_Hit_Score>  (213) 
0.29039999999999999

>  <Tanimoto_to_Gefitinib>  (213) 
0.40000000000000002

>  <MolecularWeight>  (213) 
477.94999999999999

>  <LogP>  (213) 
5.3600000000000003

>  <TPSA>  (213) 
88.609999999999999

$$$$
CHEMBL3759155
     RDKit          2D

 37 41  0  0  0  0  0  0  0  0999 V2000
    5.0621    3.9913    0.0000 C   0  0  0  0  0  0  0  0  0  0  0  0
    3.6191    3.5818    0.0000 O   0  0  0  0  0  0  0  0  0  0  0  0
    3.2522    2.1273    0.0000 C   0  0  0  0  0  0  0  0  0  0  0  0
    1.8092    1.7178    0.0000 C   0  0  0  0  0  0  0  0  0  0  0  0
    1.4424    0.2634    0.0000 C   0  0  0  0  0  0  0  0  0  0  0  0
   -0.0007   -0.1462    0.0000 C   0  0  0  0  0  0  0  0  0  0  0  0
   -1.0768    0.8988    0.0000 N   0  0  0  0  0  0  0  0  0  0  0  0
   -2.5198    0.4892    0.0000 C   0  0  0  0  0  0  0  0  0  0  0  0
   -3.5960    1.5341    0.0000 C   0  0  0  0  0  0  0  0  0  0  0  0
   -5.0390    1.1246    0.0000 C   0  0  0  0  0  0  0  0  0  0  0  0
   -5.4059   -0.3298    0.0000 C   0  0  0  0  0  0  0  0  0  0  0  0
   -6.8489   -0.7394    0.0000 N   0  0  0  0  0  0  0  0  0  0  0  0
   -7.9250    0.3056    0.0000 C   0  0  0  0  0  0  0  0  0  0  0  0
   -7.5582    1.7600    0.0000 O   0  0  0  0  0  0  0  0  0  0  0  0
   -9.3681   -0.1040    0.0000 C   0  0  0  0  0  0  0  0  0  0  0  0
  -10.4442    0.9410    0.0000 C   0  0  0  0  0  0  0  0  0  0  0  0
  -11.8872    0.5314    0.0000 C   0  0  0  0  0  0  0  0  0  0  0  0
  -12.2541   -0.9230    0.0000 C   0  0  0  0  0  0  0  0  0  0  0  0
  -11.1779   -1.9679    0.0000 C   0  0  0  0  0  0  0  0  0  0  0  0
   -9.7349   -1.5584    0.0000 C   0  0  0  0  0  0  0  0  0  0  0  0
   -4.3297   -1.3747    0.0000 C   0  0  0  0  0  0  0  0  0  0  0  0
   -2.8867   -0.9652    0.0000 C   0  0  0  0  0  0  0  0  0  0  0  0
   -0.3675   -1.6006    0.0000 N   0  0  0  0  0  0  0  0  0  0  0  0
    0.7087   -2.6455    0.0000 C   0  0  0  0  0  0  0  0  0  0  0  0
    2.1517   -2.2360    0.0000 N   0  0  0  0  0  0  0  0  0  0  0  0
    2.5185   -0.7816    0.0000 C   0  0  0  0  0  0  0  0  0  0  0  0
    3.9615   -0.3720    0.0000 C   0  0  0  0  0  0  0  0  0  0  0  0
    4.3284    1.0824    0.0000 C   0  0  0  0  0  0  0  0  0  0  0  0
    5.7714    1.4919    0.0000 O   0  0  0  0  0  0  0  0  0  0  0  0
    6.8476    0.4470    0.0000 C   0  0  0  0  0  0  0  0  0  0  0  0
    8.2906    0.8565    0.0000 C   0  0  0  0  0  0  0  0  0  0  0  0
    9.3667   -0.1884    0.0000 N   0  0  0  0  0  0  0  0  0  0  0  0
    8.9999   -1.6428    0.0000 C   0  0  0  0  0  0  0  0  0  0  0  0
   10.0761   -2.6878    0.0000 C   0  0  0  0  0  0  0  0  0  0  0  0
   11.5191   -2.2782    0.0000 C   0  0  0  0  0  0  0  0  0  0  0  0
   11.8859   -0.8238    0.0000 C   0  0  0  0  0  0  0  0  0  0  0  0
   10.8098    0.2211    0.0000 C   0  0  0  0  0  0  0  0  0  0  0  0
  1  2  1  0
  2  3  1  0
  3  4  2  0
  4  5  1  0
  5  6  2  0
  6  7  1  0
  7  8  1  0
  8  9  1  0
  9 10  2  0
 10 11  1  0
 11 12  1  0
 12 13  1  0
 13 14  2  0
 13 15  1  0
 15 16  2  0
 16 17  1  0
 17 18  2  0
 18 19  1  0
 19 20  2  0
 11 21  2  0
 21 22  1  0
  6 23  1  0
 23 24  2  0
 24 25  1  0
 25 26  2  0
 26 27  1  0
 27 28  2  0
 28 29  1  0
 29 30  1  0
 30 31  1  0
 31 32  1  0
 32 33  1  0
 33 34  1  0
 34 35  1  0
 35 36  1  0
 36 37  1  0
 28  3  1  0
 26  5  1  0
 22  8  2  0
 20 15  1  0
 37 32  1  0
M  END
>  <ChEMBL_ID>  (214) 
CHEMBL3759155

>  <SMILES>  (214) 
COc1cc2c(Nc3ccc(NC(=O)c4ccccc4)cc3)ncnc2cc1OCCN1CCCCC1

>  <MPO_Hit_Score>  (214) 
0.28289999999999998

>  <Tanimoto_to_Gefitinib>  (214) 
0.49380000000000002

>  <MolecularWeight>  (214) 
497.60000000000002

>  <LogP>  (214) 
5.5

>  <TPSA>  (214) 
88.609999999999999

$$$$
CHEMBL2018773
     RDKit          2D

 29 31  0  0  0  0  0  0  0  0999 V2000
   -8.9748   -2.3930    0.0000 C   0  0  0  0  0  0  0  0  0  0  0  0
   -7.5060   -2.6977    0.0000 C   0  0  0  0  0  0  0  0  0  0  0  0
   -6.5078   -1.5780    0.0000 N   0  0  0  0  0  0  0  0  0  0  0  0
   -6.9784   -0.1537    0.0000 C   0  0  0  0  0  0  0  0  0  0  0  0
   -8.4471    0.1509    0.0000 C   0  0  0  0  0  0  0  0  0  0  0  0
   -5.0391   -1.8827    0.0000 C   0  0  0  0  0  0  0  0  0  0  0  0
   -4.0409   -0.7630    0.0000 C   0  0  0  0  0  0  0  0  0  0  0  0
   -2.5722   -1.0677    0.0000 O   0  0  0  0  0  0  0  0  0  0  0  0
   -1.5740    0.0520    0.0000 C   0  0  0  0  0  0  0  0  0  0  0  0
   -0.1052   -0.2527    0.0000 C   0  0  0  0  0  0  0  0  0  0  0  0
    0.8930    0.8670    0.0000 C   0  0  0  0  0  0  0  0  0  0  0  0
    2.3617    0.5623    0.0000 C   0  0  0  0  0  0  0  0  0  0  0  0
    2.8322   -0.8619    0.0000 N   0  0  0  0  0  0  0  0  0  0  0  0
    4.3010   -1.1666    0.0000 C   0  0  0  0  0  0  0  0  0  0  0  0
    4.7715   -2.5909    0.0000 C   0  0  0  0  0  0  0  0  0  0  0  0
    6.2403   -2.8955    0.0000 C   0  0  0  0  0  0  0  0  0  0  0  0
    7.2385   -1.7759    0.0000 C   0  0  0  0  0  0  0  0  0  0  0  0
    8.7072   -2.0805    0.0000 Br  0  0  0  0  0  0  0  0  0  0  0  0
    6.7679   -0.3516    0.0000 C   0  0  0  0  0  0  0  0  0  0  0  0
    5.2992   -0.0469    0.0000 C   0  0  0  0  0  0  0  0  0  0  0  0
    4.8286    1.3773    0.0000 F   0  0  0  0  0  0  0  0  0  0  0  0
    3.3599    1.6820    0.0000 N   0  0  0  0  0  0  0  0  0  0  0  0
    2.8894    3.1063    0.0000 C   0  0  0  0  0  0  0  0  0  0  0  0
    1.4206    3.4109    0.0000 N   0  0  0  0  0  0  0  0  0  0  0  0
    0.4224    2.2913    0.0000 C   0  0  0  0  0  0  0  0  0  0  0  0
   -1.0463    2.5959    0.0000 C   0  0  0  0  0  0  0  0  0  0  0  0
   -2.0445    1.4763    0.0000 C   0  0  0  0  0  0  0  0  0  0  0  0
   -3.5133    1.7809    0.0000 O   0  0  0  0  0  0  0  0  0  0  0  0
   -3.9838    3.2052    0.0000 C   0  0  0  0  0  0  0  0  0  0  0  0
  1  2  1  0
  2  3  1  0
  3  4  1  0
  4  5  1  0
  3  6  1  0
  6  7  1  0
  7  8  1  0
  8  9  1  0
  9 10  2  0
 10 11  1  0
 11 12  2  0
 12 13  1  0
 13 14  1  0
 14 15  1  0
 15 16  2  0
 16 17  1  0
 17 18  1  0
 17 19  2  0
 19 20  1  0
 20 21  1  0
 12 22  1  0
 22 23  2  0
 23 24  1  0
 24 25  2  0
 25 26  1  0
 26 27  2  0
 27 28  1  0
 28 29  1  0
 27  9  1  0
 25 11  1  0
 20 14  2  0
M  END
>  <ChEMBL_ID>  (215) 
CHEMBL2018773

>  <SMILES>  (215) 
CCN(CC)CCOc1cc2c(Nc3ccc(Br)cc3F)ncnc2cc1OC

>  <MPO_Hit_Score>  (215) 
0.27400000000000002

>  <Tanimoto_to_Gefitinib>  (215) 
0.4304

>  <MolecularWeight>  (215) 
463.35000000000002

>  <LogP>  (215) 
5

>  <TPSA>  (215) 
59.509999999999998

$$$$
CHEMBL2018767
     RDKit          2D

 29 31  0  0  0  0  0  0  0  0999 V2000
   -9.4223    1.5036    0.0000 C   0  0  0  0  0  0  0  0  0  0  0  0
   -8.5135    0.3103    0.0000 C   0  0  0  0  0  0  0  0  0  0  0  0
   -7.0256    0.5007    0.0000 N   0  0  0  0  0  0  0  0  0  0  0  0
   -6.4466    1.8844    0.0000 C   0  0  0  0  0  0  0  0  0  0  0  0
   -7.3555    3.0778    0.0000 C   0  0  0  0  0  0  0  0  0  0  0  0
   -6.1167   -0.6926    0.0000 C   0  0  0  0  0  0  0  0  0  0  0  0
   -4.6289   -0.5022    0.0000 C   0  0  0  0  0  0  0  0  0  0  0  0
   -3.7200   -1.6955    0.0000 O   0  0  0  0  0  0  0  0  0  0  0  0
   -2.2322   -1.5050    0.0000 C   0  0  0  0  0  0  0  0  0  0  0  0
   -1.3233   -2.6983    0.0000 C   0  0  0  0  0  0  0  0  0  0  0  0
    0.1646   -2.5079    0.0000 C   0  0  0  0  0  0  0  0  0  0  0  0
    1.0734   -3.7012    0.0000 N   0  0  0  0  0  0  0  0  0  0  0  0
    2.5613   -3.5108    0.0000 C   0  0  0  0  0  0  0  0  0  0  0  0
    3.1403   -2.1270    0.0000 N   0  0  0  0  0  0  0  0  0  0  0  0
    2.2314   -0.9337    0.0000 C   0  0  0  0  0  0  0  0  0  0  0  0
    2.8104    0.4500    0.0000 N   0  0  0  0  0  0  0  0  0  0  0  0
    4.2983    0.6405    0.0000 C   0  0  0  0  0  0  0  0  0  0  0  0
    5.2072   -0.5528    0.0000 C   0  0  0  0  0  0  0  0  0  0  0  0
    6.6950   -0.3624    0.0000 C   0  0  0  0  0  0  0  0  0  0  0  0
    7.2740    1.0214    0.0000 C   0  0  0  0  0  0  0  0  0  0  0  0
    8.7619    1.2118    0.0000 C   0  0  0  0  0  0  0  0  0  0  0  0
    6.3652    2.2147    0.0000 C   0  0  0  0  0  0  0  0  0  0  0  0
    6.9442    3.5984    0.0000 Br  0  0  0  0  0  0  0  0  0  0  0  0
    4.8773    2.0242    0.0000 C   0  0  0  0  0  0  0  0  0  0  0  0
    0.7436   -1.1241    0.0000 C   0  0  0  0  0  0  0  0  0  0  0  0
   -0.1653    0.0692    0.0000 C   0  0  0  0  0  0  0  0  0  0  0  0
   -1.6532   -0.1213    0.0000 C   0  0  0  0  0  0  0  0  0  0  0  0
   -2.5620    1.0720    0.0000 O   0  0  0  0  0  0  0  0  0  0  0  0
   -1.9830    2.4558    0.0000 C   0  0  0  0  0  0  0  0  0  0  0  0
  1  2  1  0
  2  3  1  0
  3  4  1  0
  4  5  1  0
  3  6  1  0
  6  7  1  0
  7  8  1  0
  8  9  1  0
  9 10  2  0
 10 11  1  0
 11 12  2  0
 12 13  1  0
 13 14  2  0
 14 15  1  0
 15 16  1  0
 16 17  1  0
 17 18  1  0
 18 19  2  0
 19 20  1  0
 20 21  1  0
 20 22  2  0
 22 23  1  0
 22 24  1  0
 15 25  2  0
 25 26  1  0
 26 27  2  0
 27 28  1  0
 28 29  1  0
 27  9  1  0
 25 11  1  0
 24 17  2  0
M  END
>  <ChEMBL_ID>  (216) 
CHEMBL2018767

>  <SMILES>  (216) 
CCN(CC)CCOc1cc2ncnc(Nc3ccc(C)c(Br)c3)c2cc1OC

>  <MPO_Hit_Score>  (216) 
0.27310000000000001

>  <Tanimoto_to_Gefitinib>  (216) 
0.44869999999999999

>  <MolecularWeight>  (216) 
459.38999999999999

>  <LogP>  (216) 
5.1699999999999999

>  <TPSA>  (216) 
59.509999999999998

$$$$
CHEMBL3092307
     RDKit          2D

 36 39  0  0  0  0  0  0  0  0999 V2000
  -10.2205   -3.3450    0.0000 C   0  0  0  0  0  0  0  0  0  0  0  0
   -8.7567   -3.6722    0.0000 C   0  0  0  0  0  0  0  0  0  0  0  0
   -7.7414   -2.5681    0.0000 N   0  0  0  0  0  0  0  0  0  0  0  0
   -8.1899   -1.1367    0.0000 C   0  0  0  0  0  0  0  0  0  0  0  0
   -9.6538   -0.8095    0.0000 C   0  0  0  0  0  0  0  0  0  0  0  0
   -6.2775   -2.8953    0.0000 C   0  0  0  0  0  0  0  0  0  0  0  0
   -5.2622   -1.7911    0.0000 C   0  0  0  0  0  0  0  0  0  0  0  0
   -3.7983   -2.1183    0.0000 N   0  0  0  0  0  0  0  0  0  0  0  0
   -2.7830   -1.0142    0.0000 C   0  0  0  0  0  0  0  0  0  0  0  0
   -3.2315    0.4172    0.0000 O   0  0  0  0  0  0  0  0  0  0  0  0
   -1.3191   -1.3414    0.0000 N   0  0  0  0  0  0  0  0  0  0  0  0
   -0.3038   -0.2373    0.0000 C   0  0  0  0  0  0  0  0  0  0  0  0
    1.1601   -0.5645    0.0000 C   0  0  0  0  0  0  0  0  0  0  0  0
    2.1754    0.5397    0.0000 C   0  0  0  0  0  0  0  0  0  0  0  0
    3.6393    0.2125    0.0000 C   0  0  0  0  0  0  0  0  0  0  0  0
    4.0878   -1.2189    0.0000 N   0  0  0  0  0  0  0  0  0  0  0  0
    5.5517   -1.5461    0.0000 C   0  0  0  0  0  0  0  0  0  0  0  0
    6.0003   -2.9775    0.0000 C   0  0  0  0  0  0  0  0  0  0  0  0
    7.4642   -3.3047    0.0000 C   0  0  0  0  0  0  0  0  0  0  0  0
    8.4795   -2.2005    0.0000 C   0  0  0  0  0  0  0  0  0  0  0  0
    9.9433   -2.5277    0.0000 F   0  0  0  0  0  0  0  0  0  0  0  0
    8.0309   -0.7692    0.0000 C   0  0  0  0  0  0  0  0  0  0  0  0
    9.0462    0.3350    0.0000 Cl  0  0  0  0  0  0  0  0  0  0  0  0
    6.5670   -0.4419    0.0000 C   0  0  0  0  0  0  0  0  0  0  0  0
    4.6546    1.3166    0.0000 N   0  0  0  0  0  0  0  0  0  0  0  0
    4.2060    2.7480    0.0000 C   0  0  0  0  0  0  0  0  0  0  0  0
    2.7421    3.0752    0.0000 N   0  0  0  0  0  0  0  0  0  0  0  0
    1.7268    1.9710    0.0000 C   0  0  0  0  0  0  0  0  0  0  0  0
    0.2629    2.2983    0.0000 C   0  0  0  0  0  0  0  0  0  0  0  0
   -0.7524    1.1941    0.0000 C   0  0  0  0  0  0  0  0  0  0  0  0
   -2.2162    1.5213    0.0000 O   0  0  0  0  0  0  0  0  0  0  0  0
   -2.6648    2.9527    0.0000 C   0  0  0  0  0  0  0  0  0  0  0  0
   -4.0865    3.4311    0.0000 C   0  0  0  0  0  0  0  0  0  0  0  0
   -4.0708    4.9310    0.0000 C   0  0  0  0  0  0  0  0  0  0  0  0
   -2.6394    5.3796    0.0000 O   0  0  0  0  0  0  0  0  0  0  0  0
   -1.7705    4.1569    0.0000 C   0  0  0  0  0  0  0  0  0  0  0  0
  1  2  1  0
  2  3  1  0
  3  4  1  0
  4  5  1  0
  3  6  1  0
  6  7  1  0
  7  8  1  0
  8  9  1  0
  9 10  2  0
  9 11  1  0
 11 12  1  0
 12 13  2  0
 13 14  1  0
 14 15  2  0
 15 16  1  0
 16 17  1  0
 17 18  1  0
 18 19  2  0
 19 20  1  0
 20 21  1  0
 20 22  2  0
 22 23  1  0
 22 24  1  0
 15 25  1  0
 25 26  2  0
 26 27  1  0
 27 28  2  0
 28 29  1  0
 29 30  2  0
 30 31  1  0
 32 31  1  1
 32 33  1  0
 33 34  1  0
 34 35  1  0
 35 36  1  0
 30 12  1  0
 28 14  1  0
 24 17  2  0
 36 32  1  0
M  END
>  <ChEMBL_ID>  (217) 
CHEMBL3092307

>  <SMILES>  (217) 
CCN(CC)CCNC(=O)Nc1cc2c(Nc3ccc(F)c(Cl)c3)ncnc2cc1O[C@H]1CCOC1

>  <MPO_Hit_Score>  (217) 
0.2676

>  <Tanimoto_to_Gefitinib>  (217) 
0.43619999999999998

>  <MolecularWeight>  (217) 
517.00999999999999

>  <LogP>  (217) 
4.7999999999999998

>  <TPSA>  (217) 
100.64

$$$$
CHEMBL418967
     RDKit          2D

 26 28  0  0  0  0  0  0  0  0999 V2000
   -7.6676    0.9287    0.0000 C   0  0  0  0  0  0  0  0  0  0  0  0
   -6.8309   -0.3162    0.0000 C   0  0  0  0  0  0  0  0  0  0  0  0
   -5.3344   -0.2140    0.0000 C   0  0  0  0  0  0  0  0  0  0  0  0
   -4.4976   -1.4589    0.0000 O   0  0  0  0  0  0  0  0  0  0  0  0
   -3.0011   -1.3568    0.0000 C   0  0  0  0  0  0  0  0  0  0  0  0
   -2.1643   -2.6017    0.0000 C   0  0  0  0  0  0  0  0  0  0  0  0
   -0.6678   -2.4995    0.0000 C   0  0  0  0  0  0  0  0  0  0  0  0
    0.1689   -3.7444    0.0000 N   0  0  0  0  0  0  0  0  0  0  0  0
    1.6655   -3.6422    0.0000 C   0  0  0  0  0  0  0  0  0  0  0  0
    2.3252   -2.2951    0.0000 N   0  0  0  0  0  0  0  0  0  0  0  0
    1.4885   -1.0502    0.0000 C   0  0  0  0  0  0  0  0  0  0  0  0
    2.1482    0.2969    0.0000 N   0  0  0  0  0  0  0  0  0  0  0  0
    3.6447    0.3991    0.0000 C   0  0  0  0  0  0  0  0  0  0  0  0
    4.4815   -0.8458    0.0000 C   0  0  0  0  0  0  0  0  0  0  0  0
    5.9780   -0.7436    0.0000 C   0  0  0  0  0  0  0  0  0  0  0  0
    6.6378    0.6035    0.0000 C   0  0  0  0  0  0  0  0  0  0  0  0
    5.8010    1.8484    0.0000 C   0  0  0  0  0  0  0  0  0  0  0  0
    6.4608    3.1955    0.0000 Br  0  0  0  0  0  0  0  0  0  0  0  0
    4.3045    1.7462    0.0000 C   0  0  0  0  0  0  0  0  0  0  0  0
   -0.0081   -1.1524    0.0000 C   0  0  0  0  0  0  0  0  0  0  0  0
   -0.8448    0.0926    0.0000 C   0  0  0  0  0  0  0  0  0  0  0  0
   -2.3413   -0.0096    0.0000 C   0  0  0  0  0  0  0  0  0  0  0  0
   -3.1781    1.2353    0.0000 O   0  0  0  0  0  0  0  0  0  0  0  0
   -2.5183    2.5824    0.0000 C   0  0  0  0  0  0  0  0  0  0  0  0
   -3.3551    3.8273    0.0000 C   0  0  0  0  0  0  0  0  0  0  0  0
   -2.6953    5.1744    0.0000 C   0  0  0  0  0  0  0  0  0  0  0  0
  1  2  1  0
  2  3  1  0
  3  4  1  0
  4  5  1  0
  5  6  2  0
  6  7  1  0
  7  8  2  0
  8  9  1  0
  9 10  2  0
 10 11  1  0
 11 12  1  0
 12 13  1  0
 13 14  2  0
 14 15  1  0
 15 16  2  0
 16 17  1  0
 17 18  1  0
 17 19  2  0
 11 20  2  0
 20 21  1  0
 21 22  2  0
 22 23  1  0
 23 24  1  0
 24 25  1  0
 25 26  1  0
 22  5  1  0
 20  7  1  0
 19 13  1  0
M  END
>  <ChEMBL_ID>  (218) 
CHEMBL418967

>  <SMILES>  (218) 
CCCOc1cc2ncnc(Nc3cccc(Br)c3)c2cc1OCCC

>  <MPO_Hit_Score>  (218) 
0.26469999999999999

>  <Tanimoto_to_Gefitinib>  (218) 
0.41670000000000001

>  <MolecularWeight>  (218) 
416.31999999999999

>  <LogP>  (218) 
5.71

>  <TPSA>  (218) 
56.270000000000003

$$$$
CHEMBL3961532
     RDKit          2D

 34 37  0  0  0  0  0  0  0  0999 V2000
    9.6270    3.5417    0.0000 C   0  0  0  0  0  0  0  0  0  0  0  0
    8.1302    3.4435    0.0000 C   0  0  0  0  0  0  0  0  0  0  0  0
    7.4669    2.0981    0.0000 C   0  0  0  0  0  0  0  0  0  0  0  0
    8.3003    0.8510    0.0000 O   0  0  0  0  0  0  0  0  0  0  0  0
    5.9701    1.9999    0.0000 N   0  0  0  0  0  0  0  0  0  0  0  0
    5.3068    0.6546    0.0000 C   0  0  0  0  0  0  0  0  0  0  0  0
    3.8100    0.5563    0.0000 C   0  0  0  0  0  0  0  0  0  0  0  0
    3.1467   -0.7890    0.0000 C   0  0  0  0  0  0  0  0  0  0  0  0
    1.6499   -0.8872    0.0000 C   0  0  0  0  0  0  0  0  0  0  0  0
    0.8164    0.3599    0.0000 N   0  0  0  0  0  0  0  0  0  0  0  0
   -0.6804    0.2617    0.0000 C   0  0  0  0  0  0  0  0  0  0  0  0
   -1.5138    1.5088    0.0000 C   0  0  0  0  0  0  0  0  0  0  0  0
   -3.0106    1.4106    0.0000 C   0  0  0  0  0  0  0  0  0  0  0  0
   -3.6739    0.0652    0.0000 C   0  0  0  0  0  0  0  0  0  0  0  0
   -5.1707   -0.0330    0.0000 O   0  0  0  0  0  0  0  0  0  0  0  0
   -6.0042    1.2141    0.0000 C   0  0  0  0  0  0  0  0  0  0  0  0
   -7.5009    1.1159    0.0000 C   0  0  0  0  0  0  0  0  0  0  0  0
   -8.3344    2.3631    0.0000 C   0  0  0  0  0  0  0  0  0  0  0  0
   -9.8312    2.2648    0.0000 C   0  0  0  0  0  0  0  0  0  0  0  0
  -10.4945    0.9195    0.0000 C   0  0  0  0  0  0  0  0  0  0  0  0
   -9.6610   -0.3277    0.0000 C   0  0  0  0  0  0  0  0  0  0  0  0
  -10.3244   -1.6730    0.0000 F   0  0  0  0  0  0  0  0  0  0  0  0
   -8.1643   -0.2294    0.0000 C   0  0  0  0  0  0  0  0  0  0  0  0
   -2.8405   -1.1819    0.0000 C   0  0  0  0  0  0  0  0  0  0  0  0
   -3.5038   -2.5273    0.0000 Cl  0  0  0  0  0  0  0  0  0  0  0  0
   -1.3437   -1.0837    0.0000 C   0  0  0  0  0  0  0  0  0  0  0  0
    0.9865   -2.2326    0.0000 N   0  0  0  0  0  0  0  0  0  0  0  0
    1.8200   -3.4798    0.0000 C   0  0  0  0  0  0  0  0  0  0  0  0
    3.3168   -3.3815    0.0000 N   0  0  0  0  0  0  0  0  0  0  0  0
    3.9801   -2.0362    0.0000 C   0  0  0  0  0  0  0  0  0  0  0  0
    5.4769   -1.9379    0.0000 C   0  0  0  0  0  0  0  0  0  0  0  0
    6.1402   -0.5926    0.0000 C   0  0  0  0  0  0  0  0  0  0  0  0
    7.6370   -0.4944    0.0000 O   0  0  0  0  0  0  0  0  0  0  0  0
    8.4705   -1.7415    0.0000 C   0  0  0  0  0  0  0  0  0  0  0  0
  1  2  1  0
  2  3  1  0
  3  4  2  0
  3  5  1  0
  5  6  1  0
  6  7  2  0
  7  8  1  0
  8  9  2  0
  9 10  1  0
 10 11  1  0
 11 12  1  0
 12 13  2  0
 13 14  1  0
 14 15  1  0
 15 16  1  0
 16 17  1  0
 17 18  2  0
 18 19  1  0
 19 20  2  0
 20 21  1  0
 21 22  1  0
 21 23  2  0
 14 24  2  0
 24 25  1  0
 24 26  1  0
  9 27  1  0
 27 28  2  0
 28 29  1  0
 29 30  2  0
 30 31  1  0
 31 32  2  0
 32 33  1  0
 33 34  1  0
 32  6  1  0
 30  8  1  0
 26 11  2  0
 23 17  1  0
M  END
>  <ChEMBL_ID>  (219) 
CHEMBL3961532

>  <SMILES>  (219) 
CCC(=O)Nc1cc2c(Nc3ccc(OCc4cccc(F)c4)c(Cl)c3)ncnc2cc1OC

>  <MPO_Hit_Score>  (219) 
0.25659999999999999

>  <Tanimoto_to_Gefitinib>  (219) 
0.40910000000000002

>  <MolecularWeight>  (219) 
480.93000000000001

>  <LogP>  (219) 
6.0999999999999996

>  <TPSA>  (219) 
85.370000000000005

$$$$
CHEMBL3983460
     RDKit          2D

 37 41  0  0  0  0  0  0  0  0999 V2000
    5.7606    3.2225    0.0000 C   0  0  0  0  0  0  0  0  0  0  0  0
    4.3187    2.8090    0.0000 O   0  0  0  0  0  0  0  0  0  0  0  0
    3.9558    1.3535    0.0000 C   0  0  0  0  0  0  0  0  0  0  0  0
    2.5139    0.9401    0.0000 C   0  0  0  0  0  0  0  0  0  0  0  0
    2.1511   -0.5154    0.0000 C   0  0  0  0  0  0  0  0  0  0  0  0
    0.7092   -0.9289    0.0000 C   0  0  0  0  0  0  0  0  0  0  0  0
   -0.3698    0.1131    0.0000 N   0  0  0  0  0  0  0  0  0  0  0  0
   -1.8117   -0.3004    0.0000 C   0  0  0  0  0  0  0  0  0  0  0  0
   -2.8907    0.7416    0.0000 C   0  0  0  0  0  0  0  0  0  0  0  0
   -4.3326    0.3281    0.0000 C   0  0  0  0  0  0  0  0  0  0  0  0
   -4.6955   -1.1274    0.0000 C   0  0  0  0  0  0  0  0  0  0  0  0
   -6.1374   -1.5408    0.0000 N   0  0  0  0  0  0  0  0  0  0  0  0
   -7.2164   -0.4989    0.0000 C   0  0  0  0  0  0  0  0  0  0  0  0
   -6.8535    0.9566    0.0000 O   0  0  0  0  0  0  0  0  0  0  0  0
   -8.6583   -0.9123    0.0000 N   0  0  0  0  0  0  0  0  0  0  0  0
   -9.7373    0.1296    0.0000 C   0  0  0  0  0  0  0  0  0  0  0  0
   -9.3745    1.5851    0.0000 C   0  0  0  0  0  0  0  0  0  0  0  0
  -10.4535    2.6270    0.0000 C   0  0  0  0  0  0  0  0  0  0  0  0
  -11.8954    2.2136    0.0000 C   0  0  0  0  0  0  0  0  0  0  0  0
  -12.2582    0.7581    0.0000 C   0  0  0  0  0  0  0  0  0  0  0  0
  -11.1792   -0.2839    0.0000 C   0  0  0  0  0  0  0  0  0  0  0  0
   -3.6165   -2.1693    0.0000 C   0  0  0  0  0  0  0  0  0  0  0  0
   -2.1746   -1.7558    0.0000 C   0  0  0  0  0  0  0  0  0  0  0  0
    0.3463   -2.3843    0.0000 N   0  0  0  0  0  0  0  0  0  0  0  0
    1.4254   -3.4263    0.0000 C   0  0  0  0  0  0  0  0  0  0  0  0
    2.8673   -3.0128    0.0000 N   0  0  0  0  0  0  0  0  0  0  0  0
    3.2301   -1.5574    0.0000 C   0  0  0  0  0  0  0  0  0  0  0  0
    4.6720   -1.1439    0.0000 C   0  0  0  0  0  0  0  0  0  0  0  0
    5.0349    0.3116    0.0000 C   0  0  0  0  0  0  0  0  0  0  0  0
    6.4767    0.7250    0.0000 O   0  0  0  0  0  0  0  0  0  0  0  0
    7.5558   -0.3169    0.0000 C   0  0  0  0  0  0  0  0  0  0  0  0
    8.9977    0.0966    0.0000 C   0  0  0  0  0  0  0  0  0  0  0  0
   10.0767   -0.9454    0.0000 C   0  0  0  0  0  0  0  0  0  0  0  0
   11.5186   -0.5319    0.0000 C   0  0  0  0  0  0  0  0  0  0  0  0
   11.8814    0.9235    0.0000 C   0  0  0  0  0  0  0  0  0  0  0  0
   10.8024    1.9655    0.0000 C   0  0  0  0  0  0  0  0  0  0  0  0
    9.3605    1.5520    0.0000 C   0  0  0  0  0  0  0  0  0  0  0  0
  1  2  1  0
  2  3  1  0
  3  4  2  0
  4  5  1  0
  5  6  2  0
  6  7  1  0
  7  8  1  0
  8  9  1  0
  9 10  2  0
 10 11  1  0
 11 12  1  0
 12 13  1  0
 13 14  2  0
 13 15  1  0
 15 16  1  0
 16 17  2  0
 17 18  1  0
 18 19  2  0
 19 20  1  0
 20 21  2  0
 11 22  2  0
 22 23  1  0
  6 24  1  0
 24 25  2  0
 25 26  1  0
 26 27  2  0
 27 28  1  0
 28 29  2  0
 29 30  1  0
 30 31  1  0
 31 32  1  0
 32 33  2  0
 33 34  1  0
 34 35  2  0
 35 36  1  0
 36 37  2  0
 29  3  1  0
 27  5  1  0
 23  8  2  0
 21 16  1  0
 37 32  1  0
M  END
>  <ChEMBL_ID>  (220) 
CHEMBL3983460

>  <SMILES>  (220) 
COc1cc2c(Nc3ccc(NC(=O)Nc4ccccc4)cc3)ncnc2cc1OCc1ccccc1

>  <MPO_Hit_Score>  (220) 
0.2555

>  <Tanimoto_to_Gefitinib>  (220) 
0.4103

>  <MolecularWeight>  (220) 
491.55000000000001

>  <LogP>  (220) 
6.6100000000000003

>  <TPSA>  (220) 
97.400000000000006

$$$$
