Ibuprofen_Conf_1
     RDKit          3D

 33 33  0  0  0  0  0  0  0  0999 V2000
    4.6873   -0.0811   -0.4071 C   0  0  0  0  0  0  0  0  0  0  0  0
    3.2240    0.2335   -0.0868 C   0  0  0  0  0  0  0  0  0  0  0  0
    3.0499    0.3908    1.4260 C   0  0  0  0  0  0  0  0  0  0  0  0
    2.3151   -0.8707   -0.6614 C   0  0  0  0  0  0  0  0  0  0  0  0
    0.8417   -0.5485   -0.5864 C   0  0  0  0  0  0  0  0  0  0  0  0
    0.0144   -1.2053    0.3312 C   0  0  0  0  0  0  0  0  0  0  0  0
   -1.3476   -0.9023    0.4038 C   0  0  0  0  0  0  0  0  0  0  0  0
   -1.9127    0.0635   -0.4418 C   0  0  0  0  0  0  0  0  0  0  0  0
   -1.0809    0.7202   -1.3592 C   0  0  0  0  0  0  0  0  0  0  0  0
    0.2810    0.4167   -1.4311 C   0  0  0  0  0  0  0  0  0  0  0  0
   -3.3897    0.4062   -0.3760 C   0  0  0  0  0  0  0  0  0  0  0  0
   -4.2712   -0.7923   -0.7345 C   0  0  0  0  0  0  0  0  0  0  0  0
   -3.7794    0.9590    0.9823 C   0  0  0  0  0  0  0  0  0  0  0  0
   -4.1984    0.3295    1.9412 O   0  0  0  0  0  0  0  0  0  0  0  0
   -3.6044    2.2945    1.0734 O   0  0  0  0  0  0  0  0  0  0  0  0
    4.8417   -0.1539   -1.4889 H   0  0  0  0  0  0  0  0  0  0  0  0
    4.9987   -1.0290    0.0450 H   0  0  0  0  0  0  0  0  0  0  0  0
    5.3468    0.7074   -0.0294 H   0  0  0  0  0  0  0  0  0  0  0  0
    2.9782    1.1931   -0.5590 H   0  0  0  0  0  0  0  0  0  0  0  0
    3.7372    1.1481    1.8182 H   0  0  0  0  0  0  0  0  0  0  0  0
    3.2511   -0.5503    1.9491 H   0  0  0  0  0  0  0  0  0  0  0  0
    2.0343    0.7110    1.6788 H   0  0  0  0  0  0  0  0  0  0  0  0
    2.5641   -1.0446   -1.7170 H   0  0  0  0  0  0  0  0  0  0  0  0
    2.5154   -1.8224   -0.1517 H   0  0  0  0  0  0  0  0  0  0  0  0
    0.4249   -1.9563    1.0026 H   0  0  0  0  0  0  0  0  0  0  0  0
   -1.9623   -1.4268    1.1336 H   0  0  0  0  0  0  0  0  0  0  0  0
   -1.4851    1.4779   -2.0272 H   0  0  0  0  0  0  0  0  0  0  0  0
    0.9036    0.9408   -2.1527 H   0  0  0  0  0  0  0  0  0  0  0  0
   -3.6185    1.1882   -1.1130 H   0  0  0  0  0  0  0  0  0  0  0  0
   -4.1516   -1.6194   -0.0258 H   0  0  0  0  0  0  0  0  0  0  0  0
   -4.0303   -1.1708   -1.7340 H   0  0  0  0  0  0  0  0  0  0  0  0
   -5.3295   -0.5083   -0.7249 H   0  0  0  0  0  0  0  0  0  0  0  0
   -3.8475    2.5016    1.9998 H   0  0  0  0  0  0  0  0  0  0  0  0
  1  2  1  0
  2  3  1  0
  2  4  1  0
  4  5  1  0
  5  6  1  0
  6  7  2  0
  7  8  1  0
  8  9  2  0
  9 10  1  0
  8 11  1  0
 11 12  1  0
 11 13  1  0
 13 14  2  0
 13 15  1  0
 10  5  2  0
  1 16  1  0
  1 17  1  0
  1 18  1  0
  2 19  1  0
  3 20  1  0
  3 21  1  0
  3 22  1  0
  4 23  1  0
  4 24  1  0
  6 25  1  0
  7 26  1  0
  9 27  1  0
 10 28  1  0
 11 29  1  0
 12 30  1  0
 12 31  1  0
 12 32  1  0
 15 33  1  0
M  END
>  <Delta_E_kcal_mol>  (1) 
0

>  <Conformer_ID>  (1) 
6

$$$$
Ibuprofen_Conf_2
     RDKit          3D

 33 33  0  0  0  0  0  0  0  0999 V2000
    3.1355    1.3209    0.2395 C   0  0  0  0  0  0  0  0  0  0  0  0
    3.1793   -0.1885    0.4913 C   0  0  0  0  0  0  0  0  0  0  0  0
    4.6265   -0.6815    0.4163 C   0  0  0  0  0  0  0  0  0  0  0  0
    2.3099   -0.9677   -0.5149 C   0  0  0  0  0  0  0  0  0  0  0  0
    0.8293   -0.7081   -0.3710 C   0  0  0  0  0  0  0  0  0  0  0  0
    0.1184   -1.2286    0.7167 C   0  0  0  0  0  0  0  0  0  0  0  0
   -1.2503   -0.9847    0.8545 C   0  0  0  0  0  0  0  0  0  0  0  0
   -1.9390   -0.2160   -0.0939 C   0  0  0  0  0  0  0  0  0  0  0  0
   -1.2236    0.3050   -1.1821 C   0  0  0  0  0  0  0  0  0  0  0  0
    0.1451    0.0605   -1.3192 C   0  0  0  0  0  0  0  0  0  0  0  0
   -3.4256    0.0404    0.0716 C   0  0  0  0  0  0  0  0  0  0  0  0
   -4.2403   -0.5575   -1.0776 C   0  0  0  0  0  0  0  0  0  0  0  0
   -3.7288    1.5200    0.2180 C   0  0  0  0  0  0  0  0  0  0  0  0
   -4.0060    2.3069   -0.6736 O   0  0  0  0  0  0  0  0  0  0  0  0
   -3.6511    1.9459    1.4968 O   0  0  0  0  0  0  0  0  0  0  0  0
    3.7951    1.8491    0.9364 H   0  0  0  0  0  0  0  0  0  0  0  0
    2.1260    1.7192    0.3816 H   0  0  0  0  0  0  0  0  0  0  0  0
    3.4576    1.5634   -0.7790 H   0  0  0  0  0  0  0  0  0  0  0  0
    2.8163   -0.3739    1.5101 H   0  0  0  0  0  0  0  0  0  0  0  0
    4.6845   -1.7525    0.6375 H   0  0  0  0  0  0  0  0  0  0  0  0
    5.0519   -0.5168   -0.5796 H   0  0  0  0  0  0  0  0  0  0  0  0
    5.2547   -0.1571    1.1442 H   0  0  0  0  0  0  0  0  0  0  0  0
    2.4721   -2.0467   -0.3882 H   0  0  0  0  0  0  0  0  0  0  0  0
    2.6307   -0.7408   -1.5402 H   0  0  0  0  0  0  0  0  0  0  0  0
    0.6282   -1.8291    1.4670 H   0  0  0  0  0  0  0  0  0  0  0  0
   -1.7731   -1.4005    1.7133 H   0  0  0  0  0  0  0  0  0  0  0  0
   -1.7247    0.9126   -1.9339 H   0  0  0  0  0  0  0  0  0  0  0  0
    0.6739    0.4809   -2.1718 H   0  0  0  0  0  0  0  0  0  0  0  0
   -3.7826   -0.4477    0.9888 H   0  0  0  0  0  0  0  0  0  0  0  0
   -5.3121   -0.3999   -0.9125 H   0  0  0  0  0  0  0  0  0  0  0  0
   -4.0650   -1.6356   -1.1628 H   0  0  0  0  0  0  0  0  0  0  0  0
   -3.9909   -0.1008   -2.0419 H   0  0  0  0  0  0  0  0  0  0  0  0
   -3.8220    2.9088    1.4355 H   0  0  0  0  0  0  0  0  0  0  0  0
  1  2  1  0
  2  3  1  0
  2  4  1  0
  4  5  1  0
  5  6  1  0
  6  7  2  0
  7  8  1  0
  8  9  2  0
  9 10  1  0
  8 11  1  0
 11 12  1  0
 11 13  1  0
 13 14  2  0
 13 15  1  0
 10  5  2  0
  1 16  1  0
  1 17  1  0
  1 18  1  0
  2 19  1  0
  3 20  1  0
  3 21  1  0
  3 22  1  0
  4 23  1  0
  4 24  1  0
  6 25  1  0
  7 26  1  0
  9 27  1  0
 10 28  1  0
 11 29  1  0
 12 30  1  0
 12 31  1  0
 12 32  1  0
 15 33  1  0
M  END
>  <Delta_E_kcal_mol>  (2) 
0

>  <Conformer_ID>  (2) 
4

$$$$
Ibuprofen_Conf_3
     RDKit          3D

 33 33  0  0  0  0  0  0  0  0999 V2000
    3.2525    1.1248   -0.4670 C   0  0  0  0  0  0  0  0  0  0  0  0
    3.1335    0.0159    0.5817 C   0  0  0  0  0  0  0  0  0  0  0  0
    4.5282   -0.4929    0.9543 C   0  0  0  0  0  0  0  0  0  0  0  0
    2.2653   -1.1573    0.0862 C   0  0  0  0  0  0  0  0  0  0  0  0
    0.8101   -0.8016   -0.1041 C   0  0  0  0  0  0  0  0  0  0  0  0
    0.2702   -0.6705   -1.3885 C   0  0  0  0  0  0  0  0  0  0  0  0
   -1.0751   -0.3356   -1.5634 C   0  0  0  0  0  0  0  0  0  0  0  0
   -1.9106   -0.1267   -0.4574 C   0  0  0  0  0  0  0  0  0  0  0  0
   -1.3661   -0.2581    0.8284 C   0  0  0  0  0  0  0  0  0  0  0  0
   -0.0210   -0.5926    1.0025 C   0  0  0  0  0  0  0  0  0  0  0  0
   -3.3690    0.2374   -0.6659 C   0  0  0  0  0  0  0  0  0  0  0  0
   -4.3107   -0.8275   -0.0993 C   0  0  0  0  0  0  0  0  0  0  0  0
   -3.6990    1.5977   -0.0802 C   0  0  0  0  0  0  0  0  0  0  0  0
   -4.1206    1.8343    1.0412 O   0  0  0  0  0  0  0  0  0  0  0  0
   -3.4631    2.6096   -0.9421 O   0  0  0  0  0  0  0  0  0  0  0  0
    3.6666    0.7412   -1.4056 H   0  0  0  0  0  0  0  0  0  0  0  0
    2.2786    1.5750   -0.6828 H   0  0  0  0  0  0  0  0  0  0  0  0
    3.9097    1.9255   -0.1109 H   0  0  0  0  0  0  0  0  0  0  0  0
    2.6842    0.4486    1.4846 H   0  0  0  0  0  0  0  0  0  0  0  0
    4.4674   -1.2570    1.7365 H   0  0  0  0  0  0  0  0  0  0  0  0
    5.1517    0.3233    1.3345 H   0  0  0  0  0  0  0  0  0  0  0  0
    5.0358   -0.9324    0.0888 H   0  0  0  0  0  0  0  0  0  0  0  0
    2.3138   -1.9852    0.8065 H   0  0  0  0  0  0  0  0  0  0  0  0
    2.6771   -1.5576   -0.8496 H   0  0  0  0  0  0  0  0  0  0  0  0
    0.8953   -0.8234   -2.2654 H   0  0  0  0  0  0  0  0  0  0  0  0
   -1.4632   -0.2366   -2.5750 H   0  0  0  0  0  0  0  0  0  0  0  0
   -1.9839   -0.0967    1.7104 H   0  0  0  0  0  0  0  0  0  0  0  0
    0.3747   -0.6882    2.0112 H   0  0  0  0  0  0  0  0  0  0  0  0
   -3.5827    0.2964   -1.7420 H   0  0  0  0  0  0  0  0  0  0  0  0
   -4.1125   -1.8060   -0.5505 H   0  0  0  0  0  0  0  0  0  0  0  0
   -5.3551   -0.5653   -0.3024 H   0  0  0  0  0  0  0  0  0  0  0  0
   -4.2089   -0.9332    0.9866 H   0  0  0  0  0  0  0  0  0  0  0  0
   -3.6730    3.4145   -0.4241 H   0  0  0  0  0  0  0  0  0  0  0  0
  1  2  1  0
  2  3  1  0
  2  4  1  0
  4  5  1  0
  5  6  1  0
  6  7  2  0
  7  8  1  0
  8  9  2  0
  9 10  1  0
  8 11  1  0
 11 12  1  0
 11 13  1  0
 13 14  2  0
 13 15  1  0
 10  5  2  0
  1 16  1  0
  1 17  1  0
  1 18  1  0
  2 19  1  0
  3 20  1  0
  3 21  1  0
  3 22  1  0
  4 23  1  0
  4 24  1  0
  6 25  1  0
  7 26  1  0
  9 27  1  0
 10 28  1  0
 11 29  1  0
 12 30  1  0
 12 31  1  0
 12 32  1  0
 15 33  1  0
M  END
>  <Delta_E_kcal_mol>  (3) 
0.001

>  <Conformer_ID>  (3) 
3

$$$$
