Erlotinib
     RDKit          2D

 29 31  0  0  0  0  0  0  0  0999 V2000
    7.5914    3.1472    0.0000 C   0  0  0  0  0  0  0  0  0  0  0  0
    6.8358    1.8515    0.0000 C   0  0  0  0  0  0  0  0  0  0  0  0
    6.0801    0.5557    0.0000 C   0  0  0  0  0  0  0  0  0  0  0  0
    6.8244   -0.7466    0.0000 C   0  0  0  0  0  0  0  0  0  0  0  0
    6.0687   -2.0423    0.0000 C   0  0  0  0  0  0  0  0  0  0  0  0
    4.5687   -2.0358    0.0000 C   0  0  0  0  0  0  0  0  0  0  0  0
    3.8244   -0.7335    0.0000 C   0  0  0  0  0  0  0  0  0  0  0  0
    2.3244   -0.7269    0.0000 N   0  0  0  0  0  0  0  0  0  0  0  0
    1.5801    0.5754    0.0000 C   0  0  0  0  0  0  0  0  0  0  0  0
    2.3358    1.8712    0.0000 N   0  0  0  0  0  0  0  0  0  0  0  0
    1.5915    3.1735    0.0000 C   0  0  0  0  0  0  0  0  0  0  0  0
    0.0915    3.1800    0.0000 N   0  0  0  0  0  0  0  0  0  0  0  0
   -0.6642    1.8843    0.0000 C   0  0  0  0  0  0  0  0  0  0  0  0
   -2.1642    1.8909    0.0000 C   0  0  0  0  0  0  0  0  0  0  0  0
   -2.9198    0.5951    0.0000 C   0  0  0  0  0  0  0  0  0  0  0  0
   -4.4198    0.6017    0.0000 O   0  0  0  0  0  0  0  0  0  0  0  0
   -5.1641    1.9040    0.0000 C   0  0  0  0  0  0  0  0  0  0  0  0
   -6.6641    1.9105    0.0000 C   0  0  0  0  0  0  0  0  0  0  0  0
   -7.4084    3.2129    0.0000 O   0  0  0  0  0  0  0  0  0  0  0  0
   -8.9084    3.2194    0.0000 C   0  0  0  0  0  0  0  0  0  0  0  0
   -2.1755   -0.7072    0.0000 C   0  0  0  0  0  0  0  0  0  0  0  0
   -2.9312   -2.0029    0.0000 O   0  0  0  0  0  0  0  0  0  0  0  0
   -2.1869   -3.3052    0.0000 C   0  0  0  0  0  0  0  0  0  0  0  0
   -2.9426   -4.6010    0.0000 C   0  0  0  0  0  0  0  0  0  0  0  0
   -2.1983   -5.9033    0.0000 O   0  0  0  0  0  0  0  0  0  0  0  0
   -2.9539   -7.1990    0.0000 C   0  0  0  0  0  0  0  0  0  0  0  0
   -0.6755   -0.7138    0.0000 C   0  0  0  0  0  0  0  0  0  0  0  0
    0.0801    0.5820    0.0000 C   0  0  0  0  0  0  0  0  0  0  0  0
    4.5801    0.5623    0.0000 C   0  0  0  0  0  0  0  0  0  0  0  0
  1  2  3  0
  2  3  1  0
  3  4  1  0
  4  5  2  0
  5  6  1  0
  6  7  2  0
  7  8  1  0
  8  9  1  0
  9 10  1  0
 10 11  2  0
 11 12  1  0
 12 13  2  0
 13 14  1  0
 14 15  2  0
 15 16  1  0
 16 17  1  0
 17 18  1  0
 18 19  1  0
 19 20  1  0
 15 21  1  0
 21 22  1  0
 22 23  1  0
 23 24  1  0
 24 25  1  0
 25 26  1  0
 21 27  2  0
 27 28  1  0
  7 29  1  0
 29  3  2  0
 28  9  2  0
 28 13  1  0
M  END
>  <Compound_Name>  (1) 
Erlotinib

>  <SMILES>  (1) 
C#Cc1cccc(Nc2ncnc3cc(OCCOC)c(OCCOC)cc23)c1

>  <EGFR_IC50_nM>  (1) 
12.0

>  <Clinical_Status>  (1) 
Approved

>  <MolecularWeight>  (1) 
393.44

>  <Potency_Tier>  (1) 
Moderate

$$$$
Gefitinib
     RDKit          2D

 31 34  0  0  0  0  0  0  0  0999 V2000
   -3.1203   -4.5157    0.0000 C   0  0  0  0  0  0  0  0  0  0  0  0
   -1.7002   -4.9987    0.0000 O   0  0  0  0  0  0  0  0  0  0  0  0
   -0.5719   -4.0104    0.0000 C   0  0  0  0  0  0  0  0  0  0  0  0
    0.8483   -4.4934    0.0000 C   0  0  0  0  0  0  0  0  0  0  0  0
    1.9766   -3.5051    0.0000 C   0  0  0  0  0  0  0  0  0  0  0  0
    3.3967   -3.9881    0.0000 N   0  0  0  0  0  0  0  0  0  0  0  0
    4.5251   -2.9998    0.0000 C   0  0  0  0  0  0  0  0  0  0  0  0
    4.2333   -1.5284    0.0000 N   0  0  0  0  0  0  0  0  0  0  0  0
    2.8132   -1.0454    0.0000 C   0  0  0  0  0  0  0  0  0  0  0  0
    2.5215    0.4260    0.0000 N   0  0  0  0  0  0  0  0  0  0  0  0
    3.6498    1.4143    0.0000 C   0  0  0  0  0  0  0  0  0  0  0  0
    5.0699    0.9313    0.0000 C   0  0  0  0  0  0  0  0  0  0  0  0
    6.1983    1.9196    0.0000 C   0  0  0  0  0  0  0  0  0  0  0  0
    5.9065    3.3910    0.0000 C   0  0  0  0  0  0  0  0  0  0  0  0
    7.0349    4.3793    0.0000 F   0  0  0  0  0  0  0  0  0  0  0  0
    4.4864    3.8740    0.0000 C   0  0  0  0  0  0  0  0  0  0  0  0
    4.1947    5.3454    0.0000 Cl  0  0  0  0  0  0  0  0  0  0  0  0
    3.3581    2.8857    0.0000 C   0  0  0  0  0  0  0  0  0  0  0  0
    1.6849   -2.0337    0.0000 C   0  0  0  0  0  0  0  0  0  0  0  0
    0.2648   -1.5507    0.0000 C   0  0  0  0  0  0  0  0  0  0  0  0
   -0.8636   -2.5390    0.0000 C   0  0  0  0  0  0  0  0  0  0  0  0
   -2.2837   -2.0560    0.0000 O   0  0  0  0  0  0  0  0  0  0  0  0
   -2.5754   -0.5847    0.0000 C   0  0  0  0  0  0  0  0  0  0  0  0
   -3.9956   -0.1016    0.0000 C   0  0  0  0  0  0  0  0  0  0  0  0
   -4.2873    1.3697    0.0000 C   0  0  0  0  0  0  0  0  0  0  0  0
   -5.7074    1.8527    0.0000 N   0  0  0  0  0  0  0  0  0  0  0  0
   -5.9991    3.3241    0.0000 C   0  0  0  0  0  0  0  0  0  0  0  0
   -7.4193    3.8071    0.0000 C   0  0  0  0  0  0  0  0  0  0  0  0
   -8.5476    2.8188    0.0000 O   0  0  0  0  0  0  0  0  0  0  0  0
   -8.2559    1.3474    0.0000 C   0  0  0  0  0  0  0  0  0  0  0  0
   -6.8358    0.8644    0.0000 C   0  0  0  0  0  0  0  0  0  0  0  0
  1  2  1  0
  2  3  1  0
  3  4  2  0
  4  5  1  0
  5  6  2  0
  6  7  1  0
  7  8  2  0
  8  9  1  0
  9 10  1  0
 10 11  1  0
 11 12  1  0
 12 13  2  0
 13 14  1  0
 14 15  1  0
 14 16  2  0
 16 17  1  0
 16 18  1  0
  9 19  2  0
 19 20  1  0
 20 21  2  0
 21 22  1  0
 22 23  1  0
 23 24  1  0
 24 25  1  0
 25 26  1  0
 26 27  1  0
 27 28  1  0
 28 29  1  0
 29 30  1  0
 30 31  1  0
 21  3  1  0
 19  5  1  0
 18 11  2  0
 31 26  1  0
M  END
>  <Compound_Name>  (2) 
Gefitinib

>  <SMILES>  (2) 
COc1cc2ncnc(Nc3ccc(F)c(Cl)c3)c2cc1OCCCN4CCOCC4

>  <EGFR_IC50_nM>  (2) 
3.2

>  <Clinical_Status>  (2) 
Approved

>  <MolecularWeight>  (2) 
446.91000000000003

>  <Potency_Tier>  (2) 
High

$$$$
Lapatinib
     RDKit          2D

 39 43  0  0  0  0  0  0  0  0999 V2000
   -7.1513    6.9614    0.0000 C   0  0  0  0  0  0  0  0  0  0  0  0
   -6.4800    5.6200    0.0000 S   0  0  0  0  0  0  0  0  0  0  0  0
   -7.8214    4.9487    0.0000 O   0  0  0  0  0  0  0  0  0  0  0  0
   -5.1386    6.2913    0.0000 O   0  0  0  0  0  0  0  0  0  0  0  0
   -5.8087    4.2786    0.0000 C   0  0  0  0  0  0  0  0  0  0  0  0
   -6.6347    3.0265    0.0000 C   0  0  0  0  0  0  0  0  0  0  0  0
   -5.9634    1.6851    0.0000 N   0  0  0  0  0  0  0  0  0  0  0  0
   -6.7894    0.4330    0.0000 C   0  0  0  0  0  0  0  0  0  0  0  0
   -6.1181   -0.9084    0.0000 C   0  0  0  0  0  0  0  0  0  0  0  0
   -6.8088   -2.2399    0.0000 C   0  0  0  0  0  0  0  0  0  0  0  0
   -5.7558   -3.3082    0.0000 C   0  0  0  0  0  0  0  0  0  0  0  0
   -4.4144   -2.6369    0.0000 C   0  0  0  0  0  0  0  0  0  0  0  0
   -4.6383   -1.1537    0.0000 O   0  0  0  0  0  0  0  0  0  0  0  0
   -3.0828   -3.3275    0.0000 C   0  0  0  0  0  0  0  0  0  0  0  0
   -3.0152   -4.8260    0.0000 C   0  0  0  0  0  0  0  0  0  0  0  0
   -1.6836   -5.5166    0.0000 C   0  0  0  0  0  0  0  0  0  0  0  0
   -0.4197   -4.7088    0.0000 C   0  0  0  0  0  0  0  0  0  0  0  0
   -0.4874   -3.2103    0.0000 C   0  0  0  0  0  0  0  0  0  0  0  0
   -1.8190   -2.5197    0.0000 C   0  0  0  0  0  0  0  0  0  0  0  0
    0.7765   -2.4025    0.0000 C   0  0  0  0  0  0  0  0  0  0  0  0
    2.1080   -3.0931    0.0000 C   0  0  0  0  0  0  0  0  0  0  0  0
    2.1757   -4.5916    0.0000 C   0  0  0  0  0  0  0  0  0  0  0  0
    0.9118   -5.3994    0.0000 N   0  0  0  0  0  0  0  0  0  0  0  0
    3.3719   -2.2853    0.0000 C   0  0  0  0  0  0  0  0  0  0  0  0
    4.7035   -2.9759    0.0000 C   0  0  0  0  0  0  0  0  0  0  0  0
    5.9673   -2.1681    0.0000 C   0  0  0  0  0  0  0  0  0  0  0  0
    5.8997   -0.6696    0.0000 C   0  0  0  0  0  0  0  0  0  0  0  0
    4.5681    0.0210    0.0000 C   0  0  0  0  0  0  0  0  0  0  0  0
    3.3042   -0.7868    0.0000 C   0  0  0  0  0  0  0  0  0  0  0  0
    1.9727   -0.0962    0.0000 Cl  0  0  0  0  0  0  0  0  0  0  0  0
    4.5004    1.5195    0.0000 O   0  0  0  0  0  0  0  0  0  0  0  0
    5.7643    2.3274    0.0000 C   0  0  0  0  0  0  0  0  0  0  0  0
    7.0959    1.6367    0.0000 C   0  0  0  0  0  0  0  0  0  0  0  0
    8.3597    2.4446    0.0000 C   0  0  0  0  0  0  0  0  0  0  0  0
    8.2921    3.9431    0.0000 C   0  0  0  0  0  0  0  0  0  0  0  0
    6.9605    4.6337    0.0000 C   0  0  0  0  0  0  0  0  0  0  0  0
    5.6966    3.8258    0.0000 C   0  0  0  0  0  0  0  0  0  0  0  0
    6.8928    6.1322    0.0000 F   0  0  0  0  0  0  0  0  0  0  0  0
    0.7088   -0.9040    0.0000 N   0  0  0  0  0  0  0  0  0  0  0  0
  1  2  1  0
  2  3  2  0
  2  4  2  0
  2  5  1  0
  5  6  1  0
  6  7  1  0
  7  8  1  0
  8  9  1  0
  9 10  2  0
 10 11  1  0
 11 12  2  0
 12 13  1  0
 12 14  1  0
 14 15  1  0
 15 16  2  0
 16 17  1  0
 17 18  1  0
 18 19  1  0
 18 20  2  0
 20 21  1  0
 21 22  2  0
 22 23  1  0
 21 24  1  0
 24 25  2  0
 25 26  1  0
 26 27  2  0
 27 28  1  0
 28 29  2  0
 29 30  1  0
 28 31  1  0
 31 32  1  0
 32 33  2  0
 33 34  1  0
 34 35  2  0
 35 36  1  0
 36 37  2  0
 36 38  1  0
 20 39  1  0
 13  9  1  0
 19 14  2  0
 23 17  2  0
 29 24  1  0
 37 32  1  0
M  END
>  <Compound_Name>  (3) 
Lapatinib

>  <SMILES>  (3) 
CS(=O)(=O)CCNCc1ccc(o1)c2ccc3c(c2)c(c(cn3)c4cccc(c4Cl)Oc5cccc(c5)F)N

>  <EGFR_IC50_nM>  (3) 
9.8

>  <Clinical_Status>  (3) 
Approved

>  <MolecularWeight>  (3) 
566.04999999999995

>  <Potency_Tier>  (3) 
Moderate

$$$$
Afatinib
     RDKit          2D

 34 37  0  0  0  0  0  0  0  0999 V2000
   -9.0905   -4.3611    0.0000 C   0  0  0  0  0  0  0  0  0  0  0  0
   -8.1449   -3.1967    0.0000 N   0  0  0  0  0  0  0  0  0  0  0  0
   -8.6805   -1.7956    0.0000 C   0  0  0  0  0  0  0  0  0  0  0  0
   -6.6637   -3.4333    0.0000 C   0  0  0  0  0  0  0  0  0  0  0  0
   -5.7181   -2.2689    0.0000 C   0  0  0  0  0  0  0  0  0  0  0  0
   -4.2369   -2.5056    0.0000 C   0  0  0  0  0  0  0  0  0  0  0  0
   -3.2913   -1.3411    0.0000 C   0  0  0  0  0  0  0  0  0  0  0  0
   -3.8270    0.0600    0.0000 O   0  0  0  0  0  0  0  0  0  0  0  0
   -1.8101   -1.5778    0.0000 N   0  0  0  0  0  0  0  0  0  0  0  0
   -0.8646   -0.4133    0.0000 C   0  0  0  0  0  0  0  0  0  0  0  0
    0.6166   -0.6500    0.0000 C   0  0  0  0  0  0  0  0  0  0  0  0
    1.5622    0.5144    0.0000 C   0  0  0  0  0  0  0  0  0  0  0  0
    3.0434    0.2778    0.0000 C   0  0  0  0  0  0  0  0  0  0  0  0
    3.5791   -1.1233    0.0000 N   0  0  0  0  0  0  0  0  0  0  0  0
    5.0603   -1.3600    0.0000 C   0  0  0  0  0  0  0  0  0  0  0  0
    5.5959   -2.7611    0.0000 C   0  0  0  0  0  0  0  0  0  0  0  0
    7.0771   -2.9978    0.0000 C   0  0  0  0  0  0  0  0  0  0  0  0
    8.0227   -1.8333    0.0000 C   0  0  0  0  0  0  0  0  0  0  0  0
    9.5039   -2.0700    0.0000 Cl  0  0  0  0  0  0  0  0  0  0  0  0
    7.4871   -0.4322    0.0000 C   0  0  0  0  0  0  0  0  0  0  0  0
    8.4326    0.7322    0.0000 F   0  0  0  0  0  0  0  0  0  0  0  0
    6.0058   -0.1956    0.0000 C   0  0  0  0  0  0  0  0  0  0  0  0
    3.9890    1.4422    0.0000 N   0  0  0  0  0  0  0  0  0  0  0  0
    3.4533    2.8433    0.0000 C   0  0  0  0  0  0  0  0  0  0  0  0
    1.9721    3.0800    0.0000 N   0  0  0  0  0  0  0  0  0  0  0  0
    1.0265    1.9155    0.0000 C   0  0  0  0  0  0  0  0  0  0  0  0
   -0.4547    2.1522    0.0000 C   0  0  0  0  0  0  0  0  0  0  0  0
   -1.4002    0.9878    0.0000 C   0  0  0  0  0  0  0  0  0  0  0  0
   -2.8814    1.2244    0.0000 O   0  0  0  0  0  0  0  0  0  0  0  0
   -3.4171    2.6255    0.0000 C   0  0  0  0  0  0  0  0  0  0  0  0
   -4.8654    3.0157    0.0000 C   0  0  0  0  0  0  0  0  0  0  0  0
   -4.9419    4.5138    0.0000 C   0  0  0  0  0  0  0  0  0  0  0  0
   -3.5408    5.0494    0.0000 O   0  0  0  0  0  0  0  0  0  0  0  0
   -2.5984    3.8824    0.0000 C   0  0  0  0  0  0  0  0  0  0  0  0
  1  2  1  0
  2  3  1  0
  2  4  1  0
  4  5  1  0
  5  6  2  0
  6  7  1  0
  7  8  2  0
  7  9  1  0
  9 10  1  0
 10 11  2  0
 11 12  1  0
 12 13  2  0
 13 14  1  0
 14 15  1  0
 15 16  1  0
 16 17  2  0
 17 18  1  0
 18 19  1  0
 18 20  2  0
 20 21  1  0
 20 22  1  0
 13 23  1  0
 23 24  2  0
 24 25  1  0
 25 26  2  0
 26 27  1  0
 27 28  2  0
 28 29  1  0
 30 29  1  1
 30 31  1  0
 31 32  1  0
 32 33  1  0
 33 34  1  0
 28 10  1  0
 26 12  1  0
 22 15  2  0
 34 30  1  0
M  END
>  <Compound_Name>  (4) 
Afatinib

>  <SMILES>  (4) 
CN(C)C/C=C/C(=O)Nc1cc2c(Nc3ccc(Cl)c(F)c3)ncnc2cc1O[C@H]4CCOC4

>  <EGFR_IC50_nM>  (4) 
0.5

>  <Clinical_Status>  (4) 
Approved

>  <MolecularWeight>  (4) 
485.94999999999999

>  <Potency_Tier>  (4) 
High

$$$$
